* NGSPICE file created from mux_magic_flat.ext - technology: gf180mcuC

.subckt mux_magic_flat S3 S2 S6 UP_INPUT PRE_SCALAR ITAIL1 OUTB VCTRL_IN S4 ITAIL
+ DIV_OUT DN_INPUT UP DN S1 VCTRL2 F_IN OUT VSS VDD
X0 a_42928_8770.t1 a_43228_8148.t1 VDD.t171 ppolyf_u r_width=1.1u r_length=2.6u
X1 RES_74k_1.M.t1 VSS.t404 cap_mim_2f0_m4m5_noshield c_width=31u c_length=29u
X2 PFD_T2_0.INV_mag_1.OUT PFD_T2_0.INV_mag_1.IN.t17 VSS.t493 VSS.t492 nfet_03v3 ad=0.22p pd=1.88u as=0.22p ps=1.88u w=0.5u l=0.5u
X3 PFD_T2_0.Buffer_V_2_0.IN PFD_T2_0.INV_mag_1.IN.t18 VDD.t514 VDD.t428 pfet_03v3 ad=0.13p pd=1.02u as=0.13p ps=1.02u w=0.5u l=0.5u
X4 VCO_DFF_C_0.VCO_C_0.INV_2_5.OUT VCO_DFF_C_0.VCO_C_0.INV_2_5.IN.t31 VSS.t680 VSS.t257 nfet_03v3 ad=0.13p pd=1.02u as=0.22p ps=1.88u w=0.5u l=0.5u
X5 VCO_DFF_C_0.VCO_C_0.INV_2_0.IN VCO_DFF_C_0.VCO_C_0.INV_2_5.IN.t32 VDD.t678 VDD.t197 pfet_03v3 ad=0.13p pd=1.02u as=0.13p ps=1.02u w=0.5u l=0.84u
X6 RES_74k_1.M.t1 VSS.t403 cap_mim_2f0_m4m5_noshield c_width=31u c_length=29u
X7 VSS VCO_DFF_C_0.VCO_C_0.INV_2_3.IN.t31 VCO_DFF_C_0.VCO_C_0.INV_2_3.OUT.t11 VSS.t770 nfet_03v3 ad=0.22p pd=1.88u as=0.13p ps=1.02u w=0.5u l=0.5u
X8 VSS VCTRL2.t1 a_25706_n567.t58 VSS.t438 nfet_03v3 ad=0.13p pd=1.02u as=0.13p ps=1.02u w=0.5u l=0.84u
X9 VSS mux_magic_3.OR_magic_0.A.t3 a_21443_9476.t0 VSS.t426 nfet_03v3 ad=0.291p pd=1.64u as=0.493p ps=3.12u w=1.12u l=0.56u
X10 a_43528_12082.t1 a_43828_11460.t1 VDD.t121 ppolyf_u r_width=1.1u r_length=2.6u
X11 VDD VCO_DFF_C_0.VCO_C_0.INV_2_0.IN.t31 VCO_DFF_C_0.VCO_C_0.INV_2_5.IN.t0 VDD.t194 pfet_03v3 ad=0.13p pd=1.02u as=0.22p ps=1.88u w=0.5u l=0.84u
X12 VSS PFD_T2_0.Buffer_V_2_0.IN.t11 a_25557_8739.t2 VSS.t38 nfet_03v3 ad=0.13p pd=1.02u as=0.22p ps=1.88u w=0.5u l=0.5u
X13 VSS.t199 VSS.t197 VSS.t199 VSS.t198 nfet_03v3 ad=0.22p pd=1.88u as=0 ps=0 w=0.5u l=0.84u
X14 RES_74k_1.M.t1 VSS.t402 cap_mim_2f0_m4m5_noshield c_width=31u c_length=29u
X15 RES_74k_1.M.t1 VSS.t401 cap_mim_2f0_m4m5_noshield c_width=31u c_length=29u
X16 RES_74k_1.P.t43 RES_74k_1.P.t44 VDD.t83 ppolyf_u r_width=1.1u r_length=2.6u
X17 RES_74k_1.P A_MUX_0.Tr_Gate_1.CLK.t12 VCO_DFF_C_0.VCTRL.t15 VSS.t87 nfet_03v3 ad=0.218p pd=1.36u as=0.37p ps=2.56u w=0.84u l=0.5u
X18 VDD a_22967_8787.t4 PFD_T2_0.INV_mag_1.IN.t13 VDD.t506 pfet_03v3 ad=0.13p pd=1.02u as=0.13p ps=1.02u w=0.5u l=0.5u
X19 RES_74k_1.P.t101 RES_74k_1.P.t102 VDD.t171 ppolyf_u r_width=1.1u r_length=2.6u
X20 VSS VCTRL2.t3 a_34443_2598.t56 VSS.t443 nfet_03v3 ad=0.13p pd=1.02u as=0.13p ps=1.02u w=0.5u l=0.84u
X21 RES_74k_1.M.t1 VSS.t400 cap_mim_2f0_m4m5_noshield c_width=31u c_length=29u
X22 VSS VCO_DFF_C_0.VCO_C_0.INV_2_3.OUT.t12 VCO_DFF_C_0.VCO_C_0.OUTB.t11 VSS.t752 nfet_03v3 ad=0.22p pd=1.88u as=0.13p ps=1.02u w=0.5u l=0.5u
X23 VSS S6.t0 mux_magic_3.AND2_magic_0.A.t8 VSS.t757 nfet_03v3 ad=0.291p pd=1.64u as=0.291p ps=1.64u w=1.12u l=0.56u
X24 VCO_DFF_C_0.DFF_3_mag_0.Tr_Gate_0.IN OUT.t12 VSS.t710 VSS.t408 nfet_03v3 ad=0.13p pd=1.02u as=0.13p ps=1.02u w=0.5u l=0.5u
X25 VDD a_22967_8787.t5 PFD_T2_0.INV_mag_1.IN.t14 VDD.t509 pfet_03v3 ad=0.13p pd=1.02u as=0.13p ps=1.02u w=0.5u l=0.5u
X26 a_43828_11254.t1 a_43528_10632.t1 VDD.t121 ppolyf_u r_width=1.1u r_length=2.6u
X27 VSS VCO_DFF_C_0.DFF_3_mag_0.Tr_Gate_0.OUT.t16 OUT.t0 VSS.t248 nfet_03v3 ad=0.22p pd=1.88u as=0.13p ps=1.02u w=0.5u l=0.5u
X28 VCO_DFF_C_0.VCO_C_0.INV_2_2.IN VCO_DFF_C_0.VCTRL.t16 VDD.t552 VDD.t43 pfet_03v3 ad=0.22p pd=1.88u as=0.13p ps=1.02u w=0.5u l=0.84u
X29 VSS PFD_T2_0.INV_mag_1.OUT.t3 a_22879_10704.t1 VSS.t481 nfet_03v3 ad=0.22p pd=1.88u as=0.13p ps=1.02u w=0.5u l=0.5u
X30 PFD_T2_0.INV_mag_1.OUT PFD_T2_0.INV_mag_1.IN.t19 VDD.t516 VDD.t515 pfet_03v3 ad=0.13p pd=1.02u as=0.22p ps=1.88u w=0.5u l=0.5u
X31 VDD.t73 VDD.t71 VDD.t73 VDD.t72 pfet_03v3 ad=0.22p pd=1.88u as=0 ps=0 w=0.5u l=0.84u
X32 VCO_DFF_C_0.VCO_C_0.INV_2_3.IN VCO_DFF_C_0.VCO_C_0.INV_2_2.IN.t31 VDD.t444 VDD.t188 pfet_03v3 ad=0.22p pd=1.88u as=0.13p ps=1.02u w=0.5u l=0.84u
X33 VDD.t70 VDD.t69 VDD.t70 VDD.t9 pfet_03v3 ad=0.22p pd=1.88u as=0 ps=0 w=0.5u l=0.84u
X34 RES_74k_1.M.t1 VSS.t399 cap_mim_2f0_m4m5_noshield c_width=31u c_length=29u
X35 VSS.t196 VSS.t195 VSS.t196 VSS.t134 nfet_03v3 ad=0.22p pd=1.88u as=0 ps=0 w=0.5u l=0.84u
X36 VCO_DFF_C_0.VCO_C_0.INV_2_3.IN VCO_DFF_C_0.VCO_C_0.INV_2_5.OUT.t12 a_34443_2598.t10 VSS.t510 nfet_03v3 ad=0.22p pd=1.88u as=0.13p ps=1.02u w=0.5u l=0.84u
X37 VCO_DFF_C_0.VCO_C_0.INV_2_5.IN VCO_DFF_C_0.VCO_C_0.INV_2_0.IN.t32 VDD.t198 VDD.t197 pfet_03v3 ad=0.13p pd=1.02u as=0.13p ps=1.02u w=0.5u l=0.84u
X38 VCO_DFF_C_0.VCO_C_0.INV_2_5.IN VCO_DFF_C_0.VCTRL.t17 VDD.t553 VDD.t62 pfet_03v3 ad=0.13p pd=1.02u as=0.13p ps=1.02u w=0.5u l=0.84u
X39 VDD VCO_DFF_C_0.VCO_C_0.INV_2_5.IN.t33 VCO_DFF_C_0.VCO_C_0.INV_2_0.IN.t29 VDD.t194 pfet_03v3 ad=0.13p pd=1.02u as=0.22p ps=1.88u w=0.5u l=0.84u
X40 VDD.t68 VDD.t66 VDD.t68 VDD.t67 pfet_03v3 ad=0.22p pd=1.88u as=0 ps=0 w=0.5u l=0.84u
X41 RES_74k_1.M.t1 VSS.t398 cap_mim_2f0_m4m5_noshield c_width=31u c_length=29u
X42 mux_magic_2.OR_magic_0.B a_19897_10547.t6 VDD.t799 VDD.t798 pfet_03v3 ad=0.291p pd=1.64u as=0.291p ps=1.64u w=1.12u l=0.56u
X43 RES_74k_1.M.t1 VSS.t397 cap_mim_2f0_m4m5_noshield c_width=31u c_length=29u
X44 VCO_DFF_C_0.VCO_C_0.INV_2_2.IN VCO_DFF_C_0.VCO_C_0.INV_2_0.OUT.t12 a_34443_2598.t0 VSS.t21 nfet_03v3 ad=0.22p pd=1.88u as=0.13p ps=1.02u w=0.5u l=0.84u
X45 RES_74k_1.M.t1 VSS.t396 cap_mim_2f0_m4m5_noshield c_width=31u c_length=29u
X46 VDD VCO_DFF_C_0.VCO_C_0.INV_2_5.IN.t34 VCO_DFF_C_0.VCO_C_0.INV_2_0.IN.t28 VDD.t323 pfet_03v3 ad=0.13p pd=1.02u as=0.22p ps=1.88u w=0.5u l=0.84u
X47 VSS VCTRL2.t6 a_34443_2598.t54 VSS.t450 nfet_03v3 ad=0.13p pd=1.02u as=0.13p ps=1.02u w=0.5u l=0.84u
X48 VSS VCO_DFF_C_0.DFF_3_mag_0.Tr_Gate_0.CLK.t12 a_44716_n517.t5 VSS.t64 nfet_03v3 ad=0.218p pd=1.36u as=0.37p ps=2.56u w=0.84u l=0.5u
X49 VSS.t194 VSS.t193 VSS.t194 VSS.t186 nfet_03v3 ad=0.22p pd=1.88u as=0 ps=0 w=0.5u l=0.84u
X50 VDD mux_magic_1.AND2_magic_0.A.t10 a_27875_8520.t0 VDD.t777 pfet_03v3 ad=0.291p pd=1.64u as=0.291p ps=1.64u w=1.12u l=0.56u
X51 VCO_DFF_C_0.VCO_C_0.OUT VCO_DFF_C_0.VCO_C_0.INV_2_4.IN.t12 VSS.t513 VSS.t512 nfet_03v3 ad=0.13p pd=1.02u as=0.13p ps=1.02u w=0.5u l=0.5u
X52 VDD VCO_DFF_C_0.VCO_C_0.INV_2_4.IN.t13 VCO_DFF_C_0.VCO_C_0.OUT.t7 VDD.t720 pfet_03v3 ad=0.22p pd=1.88u as=0.13p ps=1.02u w=0.5u l=0.5u
X53 VSS ITAIL1.t6 ITAIL1.t7 VSS.t523 nfet_03v3 ad=92.8f pd=0.92u as=0.158p ps=1.64u w=0.28u l=0.56u
X54 RES_74k_1.P.t16 RES_74k_1.P.t17 VDD.t170 ppolyf_u r_width=1.1u r_length=2.6u
X55 RES_74k_1.M.t1 VSS.t395 cap_mim_2f0_m4m5_noshield c_width=31u c_length=29u
X56 VSS.t192 VSS.t190 VSS.t192 VSS.t191 nfet_03v3 ad=0.22p pd=1.88u as=0 ps=0 w=0.5u l=0.84u
X57 mux_magic_3.AND2_magic_0.A S6.t1 VDD.t824 VDD.t823 pfet_03v3 ad=0.291p pd=1.64u as=0.493p ps=3.12u w=1.12u l=0.56u
X58 VDD S3.t1 a_27875_9714.t2 VDD.t285 pfet_03v3 ad=0.291p pd=1.64u as=0.291p ps=1.64u w=1.12u l=0.56u
X59 VSS.t189 VSS.t188 VSS.t189 VSS.t145 nfet_03v3 ad=0.22p pd=1.88u as=0 ps=0 w=0.5u l=0.84u
X60 VCO_DFF_C_0.VCO_C_0.INV_2_2.IN VCO_DFF_C_0.VCO_C_0.INV_2_3.IN.t32 VDD.t187 VDD.t186 pfet_03v3 ad=0.13p pd=1.02u as=0.13p ps=1.02u w=0.5u l=0.84u
X61 VCO_DFF_C_0.VCO_C_0.INV_2_5.IN VCO_DFF_C_0.VCTRL.t18 VDD.t555 VDD.t554 pfet_03v3 ad=0.22p pd=1.88u as=0.13p ps=1.02u w=0.5u l=0.84u
X62 a_44728_10426.t1 a_44428_9804.t1 VDD.t170 ppolyf_u r_width=1.1u r_length=2.6u
X63 VDD S4.t0 A_MUX_0.Tr_Gate_1.CLK.t10 VDD.t498 pfet_03v3 ad=0.13p pd=1.02u as=0.13p ps=1.02u w=0.5u l=0.5u
X64 RES_74k_1.M.t1 VSS.t394 cap_mim_2f0_m4m5_noshield c_width=31u c_length=29u
X65 a_42628_9598.t1 a_42928_8976.t1 VDD.t228 ppolyf_u r_width=1.1u r_length=2.6u
X66 VSS.t187 VSS.t185 VSS.t187 VSS.t186 nfet_03v3 ad=0.22p pd=1.88u as=0 ps=0 w=0.5u l=0.84u
X67 a_44728_12082.t0 a_44428_11460.t0 VDD.t170 ppolyf_u r_width=1.1u r_length=2.6u
X68 VCO_DFF_C_0.VCO_C_0.INV_2_0.OUT VCO_DFF_C_0.VCO_C_0.INV_2_0.IN.t33 VSS.t58 VSS.t57 nfet_03v3 ad=0.13p pd=1.02u as=0.13p ps=1.02u w=0.5u l=0.5u
X69 VCO_DFF_C_0.DFF_3_mag_0.INV_2_1.IN VCO_DFF_C_0.VCO_C_0.OUTB.t12 VCO_DFF_C_0.DFF_3_mag_0.INV_2_5.OUT.t14 VSS.t69 nfet_03v3 ad=0.37p pd=2.56u as=0.218p ps=1.36u w=0.84u l=0.5u
X70 PFD_T2_0.FIN a_21437_10708.t6 VSS.t599 VSS.t598 nfet_03v3 ad=0.493p pd=3.12u as=0.493p ps=3.12u w=1.12u l=0.56u
X71 PFD_T2_0.INV_mag_0.OUT PFD_T2_0.INV_mag_0.IN.t18 VDD.t780 VDD.t515 pfet_03v3 ad=0.13p pd=1.02u as=0.22p ps=1.88u w=0.5u l=0.5u
X72 VCO_DFF_C_0.VCO_C_0.INV_2_0.IN VCO_DFF_C_0.VCO_C_0.OUT.t13 a_25706_n567.t15 VSS.t61 nfet_03v3 ad=0.13p pd=1.02u as=0.13p ps=1.02u w=0.5u l=0.84u
X73 VSS S1.t0 mux_magic_2.AND2_magic_0.A.t0 VSS.t7 nfet_03v3 ad=0.291p pd=1.64u as=0.291p ps=1.64u w=1.12u l=0.56u
X74 a_44428_11254.t1 a_44728_10632.t1 VDD.t170 ppolyf_u r_width=1.1u r_length=2.6u
X75 VSS OUT.t13 VCO_DFF_C_0.DFF_3_mag_0.Tr_Gate_0.IN.t15 VSS.t248 nfet_03v3 ad=0.22p pd=1.88u as=0.13p ps=1.02u w=0.5u l=0.5u
X76 VSS VCTRL2.t8 a_25706_n567.t55 VSS.t528 nfet_03v3 ad=0.13p pd=1.02u as=0.13p ps=1.02u w=0.5u l=0.84u
X77 ITAIL ITAIL.t14 VDD.t627 VDD.t94 pfet_03v3 ad=0.158p pd=1.64u as=0.158p ps=1.64u w=0.28u l=0.56u
X78 VSS PFD_T2_0.INV_mag_0.IN.t19 a_23836_10693.t3 VSS.t500 nfet_03v3 ad=0.13p pd=1.02u as=0.22p ps=1.88u w=0.5u l=0.5u
X79 VSS S3.t2 mux_magic_1.AND2_magic_0.A.t5 VSS.t232 nfet_03v3 ad=0.291p pd=1.64u as=0.291p ps=1.64u w=1.12u l=0.56u
X80 a_45928_10426.t0 a_46228_9804.t1 VDD.t353 ppolyf_u r_width=1.1u r_length=2.6u
X81 VCO_DFF_C_0.VCO_C_0.INV_2_3.OUT VCO_DFF_C_0.VCO_C_0.INV_2_3.IN.t33 VDD.t193 VDD.t176 pfet_03v3 ad=0.13p pd=1.02u as=0.22p ps=1.88u w=0.5u l=0.5u
X82 a_44428_9598.t0 a_44128_8976.t1 VDD.t154 ppolyf_u r_width=1.1u r_length=2.6u
X83 VDD S4.t1 a_42763_5679.t3 VDD.t143 pfet_03v3 ad=0.218p pd=1.36u as=0.218p ps=1.36u w=0.84u l=0.5u
X84 RES_74k_1.M.t1 VSS.t393 cap_mim_2f0_m4m5_noshield c_width=31u c_length=29u
X85 VCO_DFF_C_0.DFF_3_mag_0.Tr_Gate_0.CLK VCO_DFF_C_0.VCO_C_0.OUTB.t13 VSS.t71 VSS.t70 nfet_03v3 ad=0.13p pd=1.02u as=0.13p ps=1.02u w=0.5u l=0.5u
X86 VCO_DFF_C_0.VCO_C_0.OUTB VCO_DFF_C_0.VCO_C_0.INV_2_3.OUT.t13 VDD.t816 VDD.t715 pfet_03v3 ad=0.13p pd=1.02u as=0.22p ps=1.88u w=0.5u l=0.5u
X87 RES_74k_1.M.t1 VSS.t392 cap_mim_2f0_m4m5_noshield c_width=31u c_length=29u
X88 VCO_DFF_C_0.VCO_C_0.INV_2_0.IN VCO_DFF_C_0.VCO_C_0.INV_2_5.IN.t35 VDD.t683 VDD.t328 pfet_03v3 ad=0.22p pd=1.88u as=0.13p ps=1.02u w=0.5u l=0.84u
X89 a_45928_8770.t1 a_45628_8148.t1 VDD.t113 ppolyf_u r_width=1.1u r_length=2.6u
X90 OUTB a_41879_1284.t6 VCO_DFF_C_0.DFF_3_mag_0.INV_2_1.IN.t2 VDD.t104 pfet_03v3 ad=0.37p pd=2.56u as=0.218p ps=1.36u w=0.84u l=0.5u
X91 a_42628_8770.t1 a_42628_8148.t1 VDD.t142 ppolyf_u r_width=1.1u r_length=2.6u
X92 RES_74k_1.M.t1 VSS.t391 cap_mim_2f0_m4m5_noshield c_width=31u c_length=29u
X93 VCO_DFF_C_0.VCO_C_0.INV_2_0.IN VCO_DFF_C_0.VCO_C_0.OUT.t14 a_25706_n567.t0 VSS.t49 nfet_03v3 ad=0.22p pd=1.88u as=0.13p ps=1.02u w=0.5u l=0.84u
X94 VSS DIV_OUT.t1 a_20103_8443.t2 VSS.t18 nfet_03v3 ad=0.291p pd=1.64u as=0.291p ps=1.64u w=1.12u l=0.56u
X95 RES_74k_1.P.t4 RES_74k_1.P.t5 VDD.t120 ppolyf_u r_width=1.1u r_length=2.6u
X96 VSS VCO_DFF_C_0.VCO_C_0.INV_2_4.IN.t14 VCO_DFF_C_0.VCO_C_0.OUT.t10 VSS.t734 nfet_03v3 ad=0.22p pd=1.88u as=0.13p ps=1.02u w=0.5u l=0.5u
X97 VCO_DFF_C_0.VCO_C_0.INV_2_2.IN VCO_DFF_C_0.VCO_C_0.INV_2_3.IN.t34 VDD.t189 VDD.t188 pfet_03v3 ad=0.22p pd=1.88u as=0.13p ps=1.02u w=0.5u l=0.84u
X98 VDD.t65 VDD.t64 VDD.t65 VDD.t33 pfet_03v3 ad=0.22p pd=1.88u as=0 ps=0 w=0.5u l=0.84u
X99 VCO_DFF_C_0.DFF_3_mag_0.INV_2_5.OUT VCO_DFF_C_0.DFF_3_mag_0.INV_2_1.OUT.t20 VDD.t612 VDD.t136 pfet_03v3 ad=0.13p pd=1.02u as=0.13p ps=1.02u w=0.5u l=0.5u
X100 VSS VCTRL2.t9 a_25706_n567.t54 VSS.t528 nfet_03v3 ad=0.13p pd=1.02u as=0.13p ps=1.02u w=0.5u l=0.84u
X101 RES_74k_1.P.t93 RES_74k_1.P.t94 VDD.t113 ppolyf_u r_width=1.1u r_length=2.6u
X102 VSS OUT.t14 OUTB.t15 VSS.t713 nfet_03v3 ad=0.13p pd=1.02u as=0.13p ps=1.02u w=0.5u l=0.5u
X103 PFD_T2_0.FDIV a_21443_9476.t6 VDD.t271 VDD.t270 pfet_03v3 ad=0.493p pd=3.12u as=0.493p ps=3.12u w=1.12u l=0.56u
X104 RES_74k_1.P.t59 RES_74k_1.P.t60 VDD.t142 ppolyf_u r_width=1.1u r_length=2.6u
X105 VDD.t63 VDD.t61 VDD.t63 VDD.t62 pfet_03v3 ad=0.22p pd=1.88u as=0 ps=0 w=0.5u l=0.84u
X106 PFD_T2_0.INV_mag_1.IN a_22967_8787.t6 VDD.t224 VDD.t223 pfet_03v3 ad=0.13p pd=1.02u as=0.22p ps=1.88u w=0.5u l=0.5u
X107 VDD ITAIL.t12 ITAIL.t13 VDD.t621 pfet_03v3 ad=0.158p pd=1.64u as=0.158p ps=1.64u w=0.28u l=0.56u
X108 VCO_DFF_C_0.VCO_C_0.INV_2_2.IN VCO_DFF_C_0.VCO_C_0.INV_2_3.IN.t35 VDD.t175 VDD.t174 pfet_03v3 ad=0.22p pd=1.88u as=0.13p ps=1.02u w=0.5u l=0.84u
X109 RES_74k_1.M.t1 VSS.t390 cap_mim_2f0_m4m5_noshield c_width=31u c_length=29u
X110 VSS VSS.t178 a_20103_9637.t0 VSS.t179 nfet_03v3 ad=0.291p pd=1.64u as=0.291p ps=1.64u w=1.12u l=0.56u
X111 VCO_DFF_C_0.VCO_C_0.INV_2_3.OUT VCO_DFF_C_0.VCO_C_0.INV_2_3.IN.t36 VDD.t183 VDD.t182 pfet_03v3 ad=0.13p pd=1.02u as=0.13p ps=1.02u w=0.5u l=0.5u
X112 VDD A_MUX_0.Tr_Gate_1.CLK.t13 a_45158_5339.t3 VDD.t381 pfet_03v3 ad=0.37p pd=2.56u as=0.218p ps=1.36u w=0.84u l=0.5u
X113 VDD VCO_DFF_C_0.VCO_C_0.INV_2_0.IN.t34 VCO_DFF_C_0.VCO_C_0.INV_2_5.IN.t2 VDD.t199 pfet_03v3 ad=0.13p pd=1.02u as=0.13p ps=1.02u w=0.5u l=0.84u
X114 mux_magic_0.OR_magic_0.B a_27722_10564.t6 VSS.t597 VSS.t596 nfet_03v3 ad=0.493p pd=3.12u as=0.493p ps=3.12u w=1.12u l=0.56u
X115 a_45328_12082.t1 a_45628_11460.t0 VDD.t120 ppolyf_u r_width=1.1u r_length=2.6u
X116 a_44128_8770.t1 a_43828_8148.t0 VDD.t160 ppolyf_u r_width=1.1u r_length=2.6u
X117 mux_magic_1.AND2_magic_0.A S3.t3 VDD.t147 VDD.t146 pfet_03v3 ad=0.291p pd=1.64u as=0.493p ps=3.12u w=1.12u l=0.56u
X118 VDD.t60 VDD.t58 VDD.t60 VDD.t59 pfet_03v3 ad=0.22p pd=1.88u as=0 ps=0 w=0.5u l=0.84u
X119 VDD S2.t2 a_27722_10564.t3 VDD.t540 pfet_03v3 ad=0.291p pd=1.64u as=0.291p ps=1.64u w=1.12u l=0.56u
X120 RES_74k_1.P ITAIL.t18 a_31732_10267.t6 VDD.t92 pfet_03v3 ad=0.158p pd=1.64u as=0.158p ps=1.64u w=0.28u l=0.56u
X121 VSS VCTRL2.t10 a_25706_n567.t53 VSS.t533 nfet_03v3 ad=0.22p pd=1.88u as=0.13p ps=1.02u w=0.5u l=0.84u
X122 VCO_DFF_C_0.VCO_C_0.INV_2_4.IN VCO_DFF_C_0.VCO_C_0.INV_2_2.IN.t32 VSS.t417 VSS.t416 nfet_03v3 ad=0.13p pd=1.02u as=0.22p ps=1.88u w=0.5u l=0.5u
X123 RES_74k_1.M.t1 VSS.t389 cap_mim_2f0_m4m5_noshield c_width=31u c_length=29u
X124 mux_magic_0.OR_magic_0.A a_27722_11758.t6 VSS.t42 VSS.t41 nfet_03v3 ad=0.493p pd=3.12u as=0.493p ps=3.12u w=1.12u l=0.56u
X125 RES_74k_1.M.t1 VSS.t388 cap_mim_2f0_m4m5_noshield c_width=31u c_length=29u
X126 VDD a_31468_10271.t6 a_31732_10267.t8 VDD.t734 pfet_03v3 ad=0.308p pd=2.28u as=0.308p ps=2.28u w=0.7u l=0.56u
X127 VDD VCO_DFF_C_0.VCO_C_0.INV_2_5.IN.t36 VCO_DFF_C_0.VCO_C_0.INV_2_5.OUT.t7 VDD.t633 pfet_03v3 ad=0.13p pd=1.02u as=0.13p ps=1.02u w=0.5u l=0.5u
X128 RES_74k_1.M.t1 VSS.t387 cap_mim_2f0_m4m5_noshield c_width=31u c_length=29u
X129 a_45628_11254.t0 a_45328_10632.t1 VDD.t120 ppolyf_u r_width=1.1u r_length=2.6u
X130 VDD A_MUX_0.Tr_Gate_1.CLK.t14 a_45158_5339.t2 VDD.t378 pfet_03v3 ad=0.218p pd=1.36u as=0.218p ps=1.36u w=0.84u l=0.5u
X131 VCO_DFF_C_0.VCO_C_0.INV_2_3.IN VCO_DFF_C_0.VCO_C_0.INV_2_5.OUT.t13 a_34443_2598.t9 VSS.t50 nfet_03v3 ad=0.13p pd=1.02u as=0.13p ps=1.02u w=0.5u l=0.84u
X132 VCO_DFF_C_0.DFF_3_mag_0.INV_2_1.IN VCO_DFF_C_0.VCO_C_0.OUTB.t15 VCO_DFF_C_0.DFF_3_mag_0.INV_2_5.OUT.t13 VSS.t73 nfet_03v3 ad=0.37p pd=2.56u as=0.37p ps=2.56u w=0.84u l=0.5u
X133 VDD VCO_DFF_C_0.DFF_3_mag_0.Tr_Gate_0.CLK.t16 a_41879_1284.t1 VDD.t104 pfet_03v3 ad=0.37p pd=2.56u as=0.218p ps=1.36u w=0.84u l=0.5u
X134 VCO_DFF_C_0.VCO_C_0.INV_2_4.IN VCO_DFF_C_0.VCO_C_0.INV_2_2.IN.t33 VDD.t445 VDD.t409 pfet_03v3 ad=0.13p pd=1.02u as=0.13p ps=1.02u w=0.5u l=0.5u
X135 VDD OUT.t15 VCO_DFF_C_0.DFF_3_mag_0.Tr_Gate_0.IN.t12 VDD.t747 pfet_03v3 ad=0.22p pd=1.88u as=0.13p ps=1.02u w=0.5u l=0.5u
X136 VDD.t57 VDD.t56 VDD.t57 VDD.t9 pfet_03v3 ad=0.22p pd=1.88u as=0 ps=0 w=0.5u l=0.84u
X137 VDD a_22966_11778.t4 PFD_T2_0.INV_mag_0.IN.t9 VDD.t586 pfet_03v3 ad=0.13p pd=1.02u as=0.13p ps=1.02u w=0.5u l=0.5u
X138 RES_74k_1.P.t85 RES_74k_1.P.t86 VDD.t160 ppolyf_u r_width=1.1u r_length=2.6u
X139 VSS VCO_DFF_C_0.VCO_C_0.INV_2_2.IN.t34 VCO_DFF_C_0.VCO_C_0.INV_2_4.IN.t10 VSS.t418 nfet_03v3 ad=0.22p pd=1.88u as=0.13p ps=1.02u w=0.5u l=0.5u
X140 VCO_DFF_C_0.VCO_C_0.INV_2_5.OUT VCO_DFF_C_0.VCO_C_0.INV_2_5.IN.t37 VDD.t686 VDD.t638 pfet_03v3 ad=0.13p pd=1.02u as=0.22p ps=1.88u w=0.5u l=0.5u
X141 VCO_DFF_C_0.VCO_C_0.INV_2_0.OUT VCO_DFF_C_0.VCO_C_0.INV_2_0.IN.t35 VDD.t203 VDD.t202 pfet_03v3 ad=0.13p pd=1.02u as=0.22p ps=1.88u w=0.5u l=0.5u
X142 RES_74k_1.M.t2 VSS.t386 cap_mim_2f0_m4m5_noshield c_width=31u c_length=29u
X143 VSS UP.t5 a_31940_9626.t2 VSS.t743 nfet_03v3 ad=92.8f pd=0.92u as=92.8f ps=0.92u w=0.28u l=0.56u
X144 VDD VCO_DFF_C_0.VCO_C_0.INV_2_3.IN.t37 VCO_DFF_C_0.VCO_C_0.INV_2_3.OUT.t5 VDD.t240 pfet_03v3 ad=0.22p pd=1.88u as=0.13p ps=1.02u w=0.5u l=0.5u
X145 mux_magic_3.OR_magic_0.A a_19903_8443.t6 VDD.t651 VDD.t650 pfet_03v3 ad=0.291p pd=1.64u as=0.291p ps=1.64u w=1.12u l=0.56u
X146 VDD VCO_DFF_C_0.VCO_C_0.INV_2_5.IN.t38 VCO_DFF_C_0.VCO_C_0.INV_2_0.IN.t26 VDD.t199 pfet_03v3 ad=0.13p pd=1.02u as=0.13p ps=1.02u w=0.5u l=0.84u
X147 RES_74k_1.M.t1 VSS.t385 cap_mim_2f0_m4m5_noshield c_width=31u c_length=29u
X148 RES_74k_1.M.t1 VSS.t384 cap_mim_2f0_m4m5_noshield c_width=31u c_length=29u
X149 VDD VCO_DFF_C_0.VCO_C_0.OUTB.t16 VCO_DFF_C_0.DFF_3_mag_0.Tr_Gate_0.CLK.t7 VDD.t212 pfet_03v3 ad=0.22p pd=1.88u as=0.13p ps=1.02u w=0.5u l=0.5u
X150 VCO_DFF_C_0.VCO_C_0.INV_2_3.OUT VCO_DFF_C_0.VCO_C_0.INV_2_3.IN.t38 VSS.t411 VSS.t410 nfet_03v3 ad=0.13p pd=1.02u as=0.13p ps=1.02u w=0.5u l=0.5u
X151 VDD a_31468_10271.t7 a_31732_10267.t9 VDD.t734 pfet_03v3 ad=0.308p pd=2.28u as=0.308p ps=2.28u w=0.7u l=0.56u
X152 VDD VCO_DFF_C_0.DFF_3_mag_0.INV_2_1.OUT.t21 VCO_DFF_C_0.DFF_3_mag_0.INV_2_5.OUT.t10 VDD.t133 pfet_03v3 ad=0.22p pd=1.88u as=0.13p ps=1.02u w=0.5u l=0.5u
X153 VCO_DFF_C_0.VCO_C_0.OUTB VCO_DFF_C_0.VCO_C_0.INV_2_3.OUT.t14 VSS.t756 VSS.t755 nfet_03v3 ad=0.13p pd=1.02u as=0.13p ps=1.02u w=0.5u l=0.5u
X154 RES_74k_1.M.t3 VSS.t383 cap_mim_2f0_m4m5_noshield c_width=31u c_length=29u
X155 VDD mux_magic_2.OR_magic_0.A.t3 a_21437_12116.t7 VDD.t74 pfet_03v3 ad=0.291p pd=1.64u as=0.493p ps=3.12u w=1.12u l=0.56u
X156 RES_74k_1.M.t1 VSS.t382 cap_mim_2f0_m4m5_noshield c_width=31u c_length=29u
X157 VDD VCO_DFF_C_0.DFF_3_mag_0.Tr_Gate_0.OUT.t17 OUT.t1 VDD.t302 pfet_03v3 ad=0.13p pd=1.02u as=0.13p ps=1.02u w=0.5u l=0.5u
X158 VCO_DFF_C_0.DFF_3_mag_0.Tr_Gate_0.CLK VCO_DFF_C_0.VCO_C_0.OUTB.t17 VDD.t216 VDD.t215 pfet_03v3 ad=0.13p pd=1.02u as=0.13p ps=1.02u w=0.5u l=0.5u
X159 VDD VCO_DFF_C_0.VCO_C_0.INV_2_3.OUT.t15 VCO_DFF_C_0.VCO_C_0.OUTB.t6 VDD.t803 pfet_03v3 ad=0.22p pd=1.88u as=0.13p ps=1.02u w=0.5u l=0.5u
X160 RES_74k_1.M.t1 VSS.t381 cap_mim_2f0_m4m5_noshield c_width=31u c_length=29u
X161 VSS VCTRL2.t12 a_25706_n567.t52 VSS.t438 nfet_03v3 ad=0.13p pd=1.02u as=0.13p ps=1.02u w=0.5u l=0.84u
X162 VDD.t55 VDD.t53 VDD.t55 VDD.t54 pfet_03v3 ad=0.22p pd=1.88u as=0 ps=0 w=0.5u l=0.84u
X163 RES_74k_1.P.t51 RES_74k_1.P.t52 VDD.t142 ppolyf_u r_width=1.1u r_length=2.6u
X164 VSS VCTRL2.t13 a_25706_n567.t51 VSS.t438 nfet_03v3 ad=0.13p pd=1.02u as=0.13p ps=1.02u w=0.5u l=0.84u
X165 RES_74k_1.P.t57 RES_74k_1.P.t58 VDD.t83 ppolyf_u r_width=1.1u r_length=2.6u
X166 VDD VCO_DFF_C_0.VCO_C_0.INV_2_2.IN.t35 VCO_DFF_C_0.VCO_C_0.INV_2_3.IN.t18 VDD.t163 pfet_03v3 ad=0.13p pd=1.02u as=0.22p ps=1.88u w=0.5u l=0.84u
X167 UP a_29262_10725.t6 VDD.t159 VDD.t158 pfet_03v3 ad=0.493p pd=3.12u as=0.493p ps=3.12u w=1.12u l=0.56u
X168 VDD VCO_DFF_C_0.VCO_C_0.INV_2_0.IN.t36 VCO_DFF_C_0.VCO_C_0.INV_2_5.IN.t10 VDD.t318 pfet_03v3 ad=0.13p pd=1.02u as=0.13p ps=1.02u w=0.5u l=0.84u
X169 mux_magic_2.OR_magic_0.A a_19897_11741.t6 VSS.t56 VSS.t55 nfet_03v3 ad=0.493p pd=3.12u as=0.493p ps=3.12u w=1.12u l=0.56u
X170 VSS a_22967_8787.t7 a_22881_9554.t3 VSS.t79 nfet_03v3 ad=0.13p pd=1.02u as=0.13p ps=1.02u w=0.5u l=0.5u
X171 VCO_DFF_C_0.VCO_C_0.INV_2_2.IN VCO_DFF_C_0.VCO_C_0.INV_2_3.IN.t39 VDD.t628 VDD.t186 pfet_03v3 ad=0.13p pd=1.02u as=0.13p ps=1.02u w=0.5u l=0.84u
X172 RES_74k_1.M.t1 VSS.t380 cap_mim_2f0_m4m5_noshield c_width=31u c_length=29u
X173 VDD a_25557_8739.t3 PFD_T2_0.DOWN.t1 VDD.t400 pfet_03v3 ad=0.22p pd=1.88u as=0.13p ps=1.02u w=0.5u l=0.5u
X174 VCO_DFF_C_0.VCO_C_0.INV_2_0.OUT VCO_DFF_C_0.VCO_C_0.INV_2_0.IN.t37 VDD.t322 VDD.t321 pfet_03v3 ad=0.13p pd=1.02u as=0.13p ps=1.02u w=0.5u l=0.5u
X175 RES_74k_1.M.t0 a_42628_11460.t0 VDD.t142 ppolyf_u r_width=1.1u r_length=2.6u
X176 VDD OUT.t16 OUTB.t11 VDD.t305 pfet_03v3 ad=0.22p pd=1.88u as=0.13p ps=1.02u w=0.5u l=0.5u
X177 mux_magic_0.AND2_magic_0.A S2.t3 VDD.t543 VDD.t293 pfet_03v3 ad=0.493p pd=3.12u as=0.291p ps=1.64u w=1.12u l=0.56u
X178 a_46528_12082.t0 a_46228_11460.t0 VDD.t83 ppolyf_u r_width=1.1u r_length=2.6u
X179 VSS.t177 VSS.t176 VSS.t177 VSS.t97 nfet_03v3 ad=0.22p pd=1.88u as=0 ps=0 w=0.5u l=0.84u
X180 PFD_T2_0.INV_mag_0.IN a_22966_11778.t6 VDD.t589 VDD.t243 pfet_03v3 ad=0.13p pd=1.02u as=0.13p ps=1.02u w=0.5u l=0.5u
X181 VCO_DFF_C_0.DFF_3_mag_0.INV_2_1.OUT VCO_DFF_C_0.DFF_3_mag_0.INV_2_1.IN.t16 VDD.t288 VDD.t258 pfet_03v3 ad=0.13p pd=1.02u as=0.22p ps=1.88u w=0.5u l=0.5u
X182 a_45328_10426.t1 a_45628_9804.t0 VDD.t120 ppolyf_u r_width=1.1u r_length=2.6u
X183 VCO_DFF_C_0.VCO_C_0.OUT VCO_DFF_C_0.VCO_C_0.INV_2_4.IN.t15 VDD.t791 VDD.t723 pfet_03v3 ad=0.13p pd=1.02u as=0.13p ps=1.02u w=0.5u l=0.5u
X184 VCO_DFF_C_0.VCO_C_0.INV_2_3.IN VCO_DFF_C_0.VCO_C_0.INV_2_2.IN.t36 VDD.t448 VDD.t188 pfet_03v3 ad=0.22p pd=1.88u as=0.13p ps=1.02u w=0.5u l=0.84u
X185 RES_74k_1.P.t79 RES_74k_1.P.t80 VDD.t119 ppolyf_u r_width=1.1u r_length=2.6u
X186 PFD_T2_0.Buffer_V_2_1.IN PFD_T2_0.INV_mag_0.IN.t20 VDD.t244 VDD.t243 pfet_03v3 ad=0.22p pd=1.88u as=0.13p ps=1.02u w=0.5u l=0.5u
X187 VDD a_22967_8787.t8 PFD_T2_0.INV_mag_1.IN.t5 VDD.t225 pfet_03v3 ad=0.13p pd=1.02u as=0.13p ps=1.02u w=0.5u l=0.5u
X188 DN a_29415_9553.t6 VDD.t745 VDD.t483 pfet_03v3 ad=0.493p pd=3.12u as=0.493p ps=3.12u w=1.12u l=0.56u
X189 a_43828_9598.t0 a_43528_8976.t0 VDD.t121 ppolyf_u r_width=1.1u r_length=2.6u
X190 VCO_DFF_C_0.VCTRL S4.t3 VCTRL_IN.t7 VSS.t469 nfet_03v3 ad=0.37p pd=2.56u as=0.37p ps=2.56u w=0.84u l=0.5u
X191 VCTRL_IN a_42763_5679.t6 VCO_DFF_C_0.VCTRL.t0 VDD.t143 pfet_03v3 ad=0.218p pd=1.36u as=0.218p ps=1.36u w=0.84u l=0.5u
X192 VSS VCO_DFF_C_0.VCO_C_0.INV_2_2.IN.t37 VCO_DFF_C_0.VCO_C_0.INV_2_4.IN.t9 VSS.t421 nfet_03v3 ad=0.13p pd=1.02u as=0.13p ps=1.02u w=0.5u l=0.5u
X193 RES_74k_1.M.t1 VSS.t379 cap_mim_2f0_m4m5_noshield c_width=31u c_length=29u
X194 mux_magic_2.AND2_magic_0.A S1.t2 VDD.t698 VDD.t697 pfet_03v3 ad=0.493p pd=3.12u as=0.291p ps=1.64u w=1.12u l=0.56u
X195 a_42628_11254.t1 a_42628_10426.t0 VDD.t142 ppolyf_u r_width=1.1u r_length=2.6u
X196 a_46228_11254.t0 a_46528_10632.t0 VDD.t83 ppolyf_u r_width=1.1u r_length=2.6u
X197 VDD VCO_DFF_C_0.VCO_C_0.INV_2_2.IN.t38 VCO_DFF_C_0.VCO_C_0.INV_2_3.IN.t20 VDD.t190 pfet_03v3 ad=0.13p pd=1.02u as=0.13p ps=1.02u w=0.5u l=0.84u
X198 RES_74k_1.M.t1 VSS.t378 cap_mim_2f0_m4m5_noshield c_width=31u c_length=29u
X199 VCO_DFF_C_0.VCO_C_0.INV_2_2.IN VCO_DFF_C_0.VCO_C_0.INV_2_0.OUT.t14 a_34443_2598.t12 VSS.t50 nfet_03v3 ad=0.13p pd=1.02u as=0.13p ps=1.02u w=0.5u l=0.84u
X200 VCO_DFF_C_0.VCO_C_0.INV_2_3.IN VCO_DFF_C_0.VCO_C_0.INV_2_2.IN.t39 VDD.t452 VDD.t451 pfet_03v3 ad=0.13p pd=1.02u as=0.13p ps=1.02u w=0.5u l=0.84u
X201 VCO_DFF_C_0.DFF_3_mag_0.Tr_Gate_0.IN VCO_DFF_C_0.DFF_3_mag_0.Tr_Gate_0.CLK.t18 VCO_DFF_C_0.DFF_3_mag_0.Tr_Gate_0.OUT.t7 VSS.t45 nfet_03v3 ad=0.37p pd=2.56u as=0.37p ps=2.56u w=0.84u l=0.5u
X202 PFD_T2_0.Buffer_V_2_0.IN PFD_T2_0.INV_mag_0.OUT.t6 VSS.t473 VSS.t34 nfet_03v3 ad=0.13p pd=1.02u as=0.13p ps=1.02u w=0.5u l=0.5u
X203 VDD DIV_OUT.t2 a_19903_8443.t5 VDD.t114 pfet_03v3 ad=0.291p pd=1.64u as=0.291p ps=1.64u w=1.12u l=0.56u
X204 VDD mux_magic_1.OR_magic_0.A.t3 a_29415_8145.t4 VDD.t366 pfet_03v3 ad=0.291p pd=1.64u as=0.493p ps=3.12u w=1.12u l=0.56u
X205 VDD VCO_DFF_C_0.VCO_C_0.INV_2_5.IN.t39 VCO_DFF_C_0.VCO_C_0.INV_2_0.IN.t25 VDD.t323 pfet_03v3 ad=0.13p pd=1.02u as=0.22p ps=1.88u w=0.5u l=0.84u
X206 VCO_DFF_C_0.VCO_C_0.OUT VCO_DFF_C_0.VCO_C_0.INV_2_4.IN.t16 VDD.t793 VDD.t792 pfet_03v3 ad=0.13p pd=1.02u as=0.22p ps=1.88u w=0.5u l=0.5u
X207 VCO_DFF_C_0.VCO_C_0.INV_2_5.OUT VCO_DFF_C_0.VCO_C_0.INV_2_5.IN.t40 VSS.t681 VSS.t57 nfet_03v3 ad=0.13p pd=1.02u as=0.13p ps=1.02u w=0.5u l=0.5u
X208 RES_74k_1.M.t1 VSS.t377 cap_mim_2f0_m4m5_noshield c_width=31u c_length=29u
X209 RES_74k_1.M.t1 VSS.t376 cap_mim_2f0_m4m5_noshield c_width=31u c_length=29u
X210 VCO_DFF_C_0.VCO_C_0.INV_2_5.IN VCO_DFF_C_0.VCO_C_0.OUTB.t18 a_25706_n567.t6 VSS.t49 nfet_03v3 ad=0.22p pd=1.88u as=0.13p ps=1.02u w=0.5u l=0.84u
X211 mux_magic_0.OR_magic_0.A a_27722_11758.t7 VDD.t130 VDD.t129 pfet_03v3 ad=0.291p pd=1.64u as=0.291p ps=1.64u w=1.12u l=0.56u
X212 RES_74k_1.P.t49 RES_74k_1.P.t50 VDD.t131 ppolyf_u r_width=1.1u r_length=2.6u
X213 VSS.t175 VSS.t173 VSS.t175 VSS.t174 nfet_03v3 ad=0.22p pd=1.88u as=0 ps=0 w=0.5u l=0.84u
X214 RES_74k_1.M.t1 VSS.t375 cap_mim_2f0_m4m5_noshield c_width=31u c_length=29u
X215 VDD VCO_DFF_C_0.VCO_C_0.INV_2_2.IN.t40 VCO_DFF_C_0.VCO_C_0.INV_2_4.IN.t6 VDD.t453 pfet_03v3 ad=0.22p pd=1.88u as=0.13p ps=1.02u w=0.5u l=0.5u
X216 VCO_DFF_C_0.DFF_3_mag_0.Tr_Gate_0.OUT a_44716_n517.t6 VCO_DFF_C_0.DFF_3_mag_0.Tr_Gate_0.IN.t1 VDD.t359 pfet_03v3 ad=0.218p pd=1.36u as=0.37p ps=2.56u w=0.84u l=0.5u
X217 VSS ITAIL1.t4 ITAIL1.t5 VSS.t520 nfet_03v3 ad=0.158p pd=1.64u as=0.158p ps=1.64u w=0.28u l=0.56u
X218 a_45028_9598.t1 a_45328_8976.t1 VDD.t122 ppolyf_u r_width=1.1u r_length=2.6u
X219 VSS VCTRL2.t16 a_34443_2598.t51 VSS.t545 nfet_03v3 ad=0.13p pd=1.02u as=0.13p ps=1.02u w=0.5u l=0.84u
X220 RES_74k_1.P.t53 RES_74k_1.P.t54 VDD.t239 ppolyf_u r_width=1.1u r_length=2.6u
X221 RES_74k_1.P a_45158_5339.t6 VCO_DFF_C_0.VCTRL.t8 VDD.t381 pfet_03v3 ad=0.37p pd=2.56u as=0.218p ps=1.36u w=0.84u l=0.5u
X222 VSS VCTRL2.t18 a_34443_2598.t50 VSS.t443 nfet_03v3 ad=0.13p pd=1.02u as=0.13p ps=1.02u w=0.5u l=0.84u
X223 VDD F_IN.t1 a_19897_10547.t4 VDD.t729 pfet_03v3 ad=0.291p pd=1.64u as=0.291p ps=1.64u w=1.12u l=0.56u
X224 RES_74k_1.P ITAIL.t19 a_31732_10267.t5 VDD.t94 pfet_03v3 ad=0.158p pd=1.64u as=0.158p ps=1.64u w=0.28u l=0.56u
X225 VDD PFD_T2_0.FDIV.t4 a_22967_8787.t3 VDD.t225 pfet_03v3 ad=0.13p pd=1.02u as=0.13p ps=1.02u w=0.5u l=0.5u
X226 a_46528_8770.t1 RES_74k_1.P.t26 VDD.t161 ppolyf_u r_width=1.1u r_length=2.6u
X227 mux_magic_0.AND2_magic_0.A S2.t4 VDD.t544 VDD.t295 pfet_03v3 ad=0.291p pd=1.64u as=0.493p ps=3.12u w=1.12u l=0.56u
X228 a_43528_8770.t0 a_43228_8148.t0 VDD.t239 ppolyf_u r_width=1.1u r_length=2.6u
X229 VDD VCO_DFF_C_0.VCO_C_0.INV_2_0.IN.t38 VCO_DFF_C_0.VCO_C_0.INV_2_5.IN.t11 VDD.t323 pfet_03v3 ad=0.13p pd=1.02u as=0.22p ps=1.88u w=0.5u l=0.84u
X230 VDD S4.t4 A_MUX_0.Tr_Gate_1.CLK.t11 VDD.t498 pfet_03v3 ad=0.13p pd=1.02u as=0.13p ps=1.02u w=0.5u l=0.5u
X231 VDD VCO_DFF_C_0.VCO_C_0.OUTB.t19 a_44716_1837.t3 VDD.t217 pfet_03v3 ad=0.218p pd=1.36u as=0.218p ps=1.36u w=0.84u l=0.5u
X232 VDD.t52 VDD.t51 VDD.t52 VDD.t24 pfet_03v3 ad=0.22p pd=1.88u as=0 ps=0 w=0.5u l=0.84u
X233 PFD_T2_0.Buffer_V_2_1.IN PFD_T2_0.INV_mag_1.OUT.t5 VSS.t37 VSS.t36 nfet_03v3 ad=0.13p pd=1.02u as=0.13p ps=1.02u w=0.5u l=0.5u
X234 a_43528_12082.t0 a_43228_11460.t1 VDD.t239 ppolyf_u r_width=1.1u r_length=2.6u
X235 RES_74k_1.P a_45158_5339.t7 VCO_DFF_C_0.VCTRL.t9 VDD.t378 pfet_03v3 ad=0.218p pd=1.36u as=0.218p ps=1.36u w=0.84u l=0.5u
X236 VSS.t172 VSS.t170 VSS.t172 VSS.t171 nfet_03v3 ad=0.22p pd=1.88u as=0 ps=0 w=0.5u l=0.84u
X237 VCO_DFF_C_0.VCO_C_0.INV_2_2.IN VCO_DFF_C_0.VCO_C_0.INV_2_0.OUT.t15 a_34443_2598.t11 VSS.t43 nfet_03v3 ad=0.13p pd=1.02u as=0.13p ps=1.02u w=0.5u l=0.84u
X238 RES_74k_1.P.t41 RES_74k_1.P.t42 VDD.t161 ppolyf_u r_width=1.1u r_length=2.6u
X239 VSS VCTRL2.t21 a_34443_2598.t48 VSS.t443 nfet_03v3 ad=0.13p pd=1.02u as=0.13p ps=1.02u w=0.5u l=0.84u
X240 VDD VCO_DFF_C_0.VCO_C_0.INV_2_3.IN.t40 VCO_DFF_C_0.VCO_C_0.INV_2_2.IN.t24 VDD.t163 pfet_03v3 ad=0.13p pd=1.02u as=0.22p ps=1.88u w=0.5u l=0.84u
X241 PFD_T2_0.Buffer_V_2_1.IN PFD_T2_0.INV_mag_0.IN.t21 a_23836_10693.t5 VSS.t86 nfet_03v3 ad=0.13p pd=1.02u as=0.13p ps=1.02u w=0.5u l=0.5u
X242 ITAIL1 ITAIL1.t2 VSS.t519 VSS.t518 nfet_03v3 ad=0.158p pd=1.64u as=92.8f ps=0.92u w=0.28u l=0.56u
X243 mux_magic_1.AND2_magic_0.A S3.t4 VDD.t149 VDD.t148 pfet_03v3 ad=0.493p pd=3.12u as=0.291p ps=1.64u w=1.12u l=0.56u
X244 RES_74k_1.P.t27 RES_74k_1.P.t28 VDD.t239 ppolyf_u r_width=1.1u r_length=2.6u
X245 VCO_DFF_C_0.DFF_3_mag_0.INV_2_1.IN a_41879_n196.t6 VCO_DFF_C_0.DFF_3_mag_0.INV_2_5.OUT.t16 VDD.t98 pfet_03v3 ad=0.218p pd=1.36u as=0.37p ps=2.56u w=0.84u l=0.5u
X246 VDD VCO_DFF_C_0.VCO_C_0.INV_2_3.IN.t41 VCO_DFF_C_0.VCO_C_0.INV_2_2.IN.t23 VDD.t275 pfet_03v3 ad=0.13p pd=1.02u as=0.22p ps=1.88u w=0.5u l=0.84u
X247 VDD mux_magic_3.OR_magic_0.A.t5 a_21443_8068.t2 VDD.t251 pfet_03v3 ad=0.291p pd=1.64u as=0.493p ps=3.12u w=1.12u l=0.56u
X248 RES_74k_1.P A_MUX_0.Tr_Gate_1.CLK.t16 VCO_DFF_C_0.VCTRL.t14 VSS.t429 nfet_03v3 ad=0.37p pd=2.56u as=0.37p ps=2.56u w=0.84u l=0.5u
X249 RES_74k_1.M.t1 VSS.t374 cap_mim_2f0_m4m5_noshield c_width=31u c_length=29u
X250 VSS.t169 VSS.t168 VSS.t169 VSS.t91 nfet_03v3 ad=0.22p pd=1.88u as=0 ps=0 w=0.5u l=0.84u
X251 VSS S4.t5 A_MUX_0.Tr_Gate_1.CLK.t2 VSS.t454 nfet_03v3 ad=0.13p pd=1.02u as=0.13p ps=1.02u w=0.5u l=0.5u
X252 mux_magic_2.AND2_magic_0.A S1.t3 VDD.t700 VDD.t699 pfet_03v3 ad=0.291p pd=1.64u as=0.493p ps=3.12u w=1.12u l=0.56u
X253 a_43228_11254.t1 a_43528_10632.t0 VDD.t239 ppolyf_u r_width=1.1u r_length=2.6u
X254 RES_74k_1.M.t1 VSS.t373 cap_mim_2f0_m4m5_noshield c_width=31u c_length=29u
X255 VSS PFD_T2_0.INV_mag_1.IN.t22 a_23837_9553.t2 VSS.t430 nfet_03v3 ad=0.22p pd=1.88u as=0.13p ps=1.02u w=0.5u l=0.5u
X256 a_44728_8770.t0 a_45028_8148.t0 VDD.t103 ppolyf_u r_width=1.1u r_length=2.6u
X257 VDD VCO_DFF_C_0.DFF_3_mag_0.Tr_Gate_0.CLK.t20 a_44716_n517.t1 VDD.t360 pfet_03v3 ad=0.37p pd=2.56u as=0.218p ps=1.36u w=0.84u l=0.5u
X258 RES_74k_1.M.t1 VSS.t372 cap_mim_2f0_m4m5_noshield c_width=31u c_length=29u
X259 VSS.t167 VSS.t166 VSS.t167 VSS.t94 nfet_03v3 ad=0.22p pd=1.88u as=0 ps=0 w=0.5u l=0.84u