* NGSPICE file created from LSBs_magic_flat.ext - technology: gf180mcuC

.subckt pex_LSBs_magic VDD VSS B1 B2 B3 B4 B5 B6 ITAIL OUT+ OUT- OUT1 OUT2 OUT3 OUT4 OUT5 OUT6 
X0 OUT+.t119 OUT+.t118 OUT+.t119 VSS.t148 nfet_03v3 ad=0 pd=0 as=0.156p ps=1.12u w=0.6u l=0.5u
X1 Balance_Inverter_5.Inverter_0.OUT B6.t0 VDD.t4 VDD.t3 pfet_03v3 ad=0.22p pd=1.88u as=0.22p ps=1.88u w=0.5u l=0.28u
X2 SD3_1 SDn_2.t24 VSS.t168 VSS.t154 nfet_03v3 ad=0.156p pd=1.12u as=0.156p ps=1.12u w=0.6u l=0.5u
X3 OUT-.t90 b6.t2 OUT-.t90 VSS.t39 nfet_03v3 ad=0 pd=0 as=0.156p ps=1.12u w=0.6u l=0.5u
X4 OUT+.t117 OUT+.t116 OUT+.t117 VSS.t147 nfet_03v3 ad=94.8f pd=0.92u as=0 ps=0 w=0.3u l=0.5u
X5 OUT6 IT.t24 SD3_1.t62 VSS.t283 nfet_03v3 ad=0.156p pd=1.12u as=0.156p ps=1.12u w=0.6u l=0.5u
X6 OUT+.t145 b6b.t2 OUT+.t145 VSS.t89 nfet_03v3 ad=0 pd=0 as=0.156p ps=1.12u w=0.6u l=0.5u
X7 OUT+.t115 OUT+.t114 OUT+.t115 VSS.t138 nfet_03v3 ad=0 pd=0 as=0.264p ps=2.08u w=0.6u l=0.5u
X8 OUT+ b2.t2 OUT2.t4 VSS.t230 nfet_03v3 ad=0.156p pd=1.12u as=0.156p ps=1.12u w=0.6u l=0.5u
X9 SD3_1 IT.t25 OUT6.t37 VSS.t254 nfet_03v3 ad=0.156p pd=1.12u as=0.156p ps=1.12u w=0.6u l=0.5u
X10 OUT- b5b.t2 OUT5.t31 VSS.t186 nfet_03v3 ad=0.156p pd=1.12u as=0.156p ps=1.12u w=0.6u l=0.5u
X11 VSS G2.t3 SD2_5.t11 VSS.t13 nfet_03v3 ad=0.156p pd=1.12u as=0.156p ps=1.12u w=0.6u l=0.5u
X12 SD3_1 SDn_2.t25 VSS.t170 VSS.t169 nfet_03v3 ad=0.156p pd=1.12u as=0.264p ps=2.08u w=0.6u l=0.5u
X13 OUT+.t113 OUT+.t112 OUT+.t113 VSS.t112 nfet_03v3 ad=0.156p pd=1.12u as=0 ps=0 w=0.6u l=0.5u
X14 OUT+ b5.t2 OUT5.t44 VSS.t200 nfet_03v3 ad=0.156p pd=1.12u as=0.156p ps=1.12u w=0.6u l=0.5u
X15 OUT- b4b.t2 OUT4.t21 VSS.t210 nfet_03v3 ad=0.156p pd=1.12u as=0.156p ps=1.12u w=0.6u l=0.5u
X16 OUT6 IT.t26 SD3_1.t0 VSS.t36 nfet_03v3 ad=0.156p pd=1.12u as=0.156p ps=1.12u w=0.6u l=0.5u
X17 OUT6 b6b.t3 OUT-.t37 VSS.t16 nfet_03v3 ad=0.156p pd=1.12u as=0.156p ps=1.12u w=0.6u l=0.5u
X18 OUT6 b6.t3 OUT+.t12 VSS.t16 nfet_03v3 ad=0.156p pd=1.12u as=0.156p ps=1.12u w=0.6u l=0.5u
X19 OUT+.t161 b5b.t3 OUT+.t161 VSS.t201 nfet_03v3 ad=0 pd=0 as=0.156p ps=1.12u w=0.6u l=0.5u
X20 OUT- b2b.t2 OUT2.t1 VSS.t42 nfet_03v3 ad=0.156p pd=1.12u as=0.156p ps=1.12u w=0.6u l=0.5u
X21 SD3_1 IT.t27 OUT6.t35 VSS.t37 nfet_03v3 ad=0.156p pd=1.12u as=0.156p ps=1.12u w=0.6u l=0.5u
X22 OUT-.t179 OUT-.t178 OUT-.t179 VSS.t67 nfet_03v3 ad=0 pd=0 as=0.16p ps=1.64u w=0.3u l=0.5u
X23 b1b B1.t0 VSS.t218 VSS.t217 nfet_03v3 ad=0.152p pd=1.64u as=0.152p ps=1.64u w=0.22u l=0.28u
X24 SD2_5 ITAIL.t2 OUT4.t10 VSS.t113 nfet_03v3 ad=0.156p pd=1.12u as=0.264p ps=2.08u w=0.6u l=0.5u
X25 OUT- b6b.t4 OUT6.t46 VSS.t20 nfet_03v3 ad=0.156p pd=1.12u as=0.156p ps=1.12u w=0.6u l=0.5u
X26 OUT+.t111 OUT+.t110 OUT+.t111 VSS.t144 nfet_03v3 ad=0.156p pd=1.12u as=0 ps=0 w=0.6u l=0.5u
X27 VSS Balance_Inverter_5.Inverter_0.OUT b6.t0 VSS.t319 nfet_03v3 ad=0.152p pd=1.64u as=0.152p ps=1.64u w=0.22u l=0.28u
X28 SDn_1 IT.t28 OUT5.t7 VSS.t38 nfet_03v3 ad=0.156p pd=1.12u as=0.156p ps=1.12u w=0.6u l=0.5u
X29 SDn_2 SDn_2.t14 VSS.t88 VSS.t87 nfet_03v3 ad=0.156p pd=1.12u as=0.264p ps=2.08u w=0.6u l=0.5u
X30 OUT5 b5.t3 OUT+.t142 VSS.t194 nfet_03v3 ad=0.156p pd=1.12u as=0.156p ps=1.12u w=0.6u l=0.5u
X31 OUT+ b3.t2 OUT3.t4 VSS.t70 nfet_03v3 ad=0.264p pd=2.08u as=0.156p ps=1.12u w=0.6u l=0.5u
X32 VSS SDn_2.t27 SD3_1.t59 VSS.t171 nfet_03v3 ad=0.156p pd=1.12u as=0.156p ps=1.12u w=0.6u l=0.5u
X33 OUT+ b6.t4 OUT6.t91 VSS.t21 nfet_03v3 ad=0.156p pd=1.12u as=0.156p ps=1.12u w=0.6u l=0.5u
X34 OUT-.t177 OUT-.t176 OUT-.t177 VSS.t111 nfet_03v3 ad=0 pd=0 as=0.264p ps=2.08u w=0.6u l=0.5u
X35 b2b b2.t3 VDD.t60 VDD.t59 pfet_03v3 ad=0.152p pd=1.64u as=0.152p ps=1.64u w=0.22u l=0.28u
X36 OUT6 IT.t29 SD3_1.t8 VSS.t130 nfet_03v3 ad=0.156p pd=1.12u as=0.156p ps=1.12u w=0.6u l=0.5u
X37 SD3_1 IT.t30 OUT6.t33 VSS.t131 nfet_03v3 ad=0.156p pd=1.12u as=0.156p ps=1.12u w=0.6u l=0.5u
X38 OUT- b6b.t5 OUT6.t4 VSS.t41 nfet_03v3 ad=0.156p pd=1.12u as=0.156p ps=1.12u w=0.6u l=0.5u
X39 OUT+.t109 OUT+.t108 OUT+.t109 VSS.t146 nfet_03v3 ad=0 pd=0 as=0.156p ps=1.12u w=0.6u l=0.5u
X40 OUT-.t175 OUT-.t174 OUT-.t175 VSS.t91 nfet_03v3 ad=0 pd=0 as=0.156p ps=1.12u w=0.6u l=0.5u
X41 OUT-.t173 OUT-.t172 OUT-.t173 VSS.t136 nfet_03v3 ad=0.156p pd=1.12u as=0 ps=0 w=0.6u l=0.5u
X42 OUT4 b4.t2 OUT+.t125 VSS.t182 nfet_03v3 ad=0.156p pd=1.12u as=0.156p ps=1.12u w=0.6u l=0.5u
X43 SD3_1 IT.t31 OUT6.t32 VSS.t132 nfet_03v3 ad=0.156p pd=1.12u as=0.156p ps=1.12u w=0.6u l=0.5u
X44 OUT-.t171 OUT-.t170 OUT-.t171 VSS.t174 nfet_03v3 ad=0 pd=0 as=0.16p ps=1.64u w=0.3u l=0.5u
X45 SD3_1 IT.t32 OUT6.t31 VSS.t149 nfet_03v3 ad=0.156p pd=1.12u as=0.156p ps=1.12u w=0.6u l=0.5u
X46 SD2_1 G2.t4 VSS.t236 VSS.t208 nfet_03v3 ad=0.156p pd=1.12u as=0.156p ps=1.12u w=0.6u l=0.5u
X47 OUT6 b6.t5 OUT+.t168 VSS.t18 nfet_03v3 ad=0.156p pd=1.12u as=0.156p ps=1.12u w=0.6u l=0.5u
X48 OUT-.t72 b4.t3 OUT-.t72 VSS.t227 nfet_03v3 ad=0 pd=0 as=0.16p ps=1.64u w=0.3u l=0.5u
X49 OUT6 IT.t33 SD3_1.t15 VSS.t150 nfet_03v3 ad=0.156p pd=1.12u as=0.156p ps=1.12u w=0.6u l=0.5u
X50 SDn_2 IT.t14 IT.t15 VSS.t83 nfet_03v3 ad=0.156p pd=1.12u as=0.156p ps=1.12u w=0.6u l=0.5u
X51 OUT- b6b.t6 OUT6.t5 VSS.t22 nfet_03v3 ad=0.156p pd=1.12u as=0.156p ps=1.12u w=0.6u l=0.5u
X52 OUT-.t73 b4.t4 OUT-.t73 VSS.t287 nfet_03v3 ad=0 pd=0 as=0.16p ps=1.64u w=0.3u l=0.5u
X53 IT G1_2.t24 SD1_1.t7 VDD.t19 pfet_03v3 ad=0.156p pd=1.12u as=0.156p ps=1.12u w=0.6u l=0.5u
X54 OUT-.t57 b2.t4 OUT-.t57 VSS.t231 nfet_03v3 ad=0 pd=0 as=0.16p ps=1.64u w=0.3u l=0.5u
X55 OUT- b6b.t7 OUT6.t2 VSS.t22 nfet_03v3 ad=0.156p pd=1.12u as=0.156p ps=1.12u w=0.6u l=0.5u
X56 VSS G2.t5 SD2_4.t3 VSS.t73 nfet_03v3 ad=0.264p pd=2.08u as=0.156p ps=1.12u w=0.6u l=0.5u
X57 OUT+.t107 OUT+.t106 OUT+.t107 VSS.t93 nfet_03v3 ad=0 pd=0 as=0.264p ps=2.08u w=0.6u l=0.5u
X58 OUT6 b6.t6 OUT+.t169 VSS.t17 nfet_03v3 ad=0.156p pd=1.12u as=0.156p ps=1.12u w=0.6u l=0.5u
X59 OUT6 IT.t34 SD3_1.t16 VSS.t151 nfet_03v3 ad=0.156p pd=1.12u as=0.156p ps=1.12u w=0.6u l=0.5u
X60 OUT+.t105 OUT+.t104 OUT+.t105 VSS.t93 nfet_03v3 ad=0 pd=0 as=0.264p ps=2.08u w=0.6u l=0.5u
X61 VSS SDn_2.t28 SDn_1.t31 VSS.t239 nfet_03v3 ad=0.264p pd=2.08u as=0.156p ps=1.12u w=0.6u l=0.5u
X62 G1_1 G1_2.t12 G1_2.t13 VDD.t48 pfet_03v3 ad=0.156p pd=1.12u as=0.156p ps=1.12u w=0.6u l=0.5u
X63 OUT-.t34 b5.t4 OUT-.t34 VSS.t199 nfet_03v3 ad=0 pd=0 as=0.156p ps=1.12u w=0.6u l=0.5u
X64 OUT4 ITAIL.t3 SD2_5.t15 VSS.t318 nfet_03v3 ad=0.264p pd=2.08u as=0.156p ps=1.12u w=0.6u l=0.5u
X65 OUT+.t103 OUT+.t102 OUT+.t103 VSS.t91 nfet_03v3 ad=0 pd=0 as=0.156p ps=1.12u w=0.6u l=0.5u
X66 OUT-.t169 OUT-.t168 OUT-.t169 VSS.t91 nfet_03v3 ad=0 pd=0 as=0.156p ps=1.12u w=0.6u l=0.5u
X67 OUT-.t167 OUT-.t166 OUT-.t167 VSS.t138 nfet_03v3 ad=0 pd=0 as=0.264p ps=2.08u w=0.6u l=0.5u
X68 OUT6 b6b.t8 OUT-.t3 VSS.t18 nfet_03v3 ad=0.156p pd=1.12u as=0.156p ps=1.12u w=0.6u l=0.5u
X69 OUT6 b6.t7 OUT+.t186 VSS.t18 nfet_03v3 ad=0.156p pd=1.12u as=0.156p ps=1.12u w=0.6u l=0.5u
X70 OUT+.t178 b6b.t9 OUT+.t178 VSS.t72 nfet_03v3 ad=0 pd=0 as=0.156p ps=1.12u w=0.6u l=0.5u
X71 SD2_1 ITAIL.t4 G1_2.t23 VSS.t119 nfet_03v3 ad=0.156p pd=1.12u as=0.264p ps=2.08u w=0.6u l=0.5u
X72 VSS SDn_2.t29 SD3_1.t58 VSS.t242 nfet_03v3 ad=0.156p pd=1.12u as=0.156p ps=1.12u w=0.6u l=0.5u
X73 G1_2 G1_2.t4 G1_1.t6 VDD.t17 pfet_03v3 ad=0.156p pd=1.12u as=0.156p ps=1.12u w=0.6u l=0.5u
X74 Balance_Inverter_1.Inverter_0.OUT B3.t0 VDD.t41 VDD.t40 pfet_03v3 ad=0.22p pd=1.88u as=0.22p ps=1.88u w=0.5u l=0.28u
X75 OUT+ b6.t8 OUT6.t87 VSS.t21 nfet_03v3 ad=0.156p pd=1.12u as=0.156p ps=1.12u w=0.6u l=0.5u
X76 OUT+.t155 b4b.t3 OUT+.t155 VSS.t215 nfet_03v3 ad=0.16p pd=1.64u as=0 ps=0 w=0.3u l=0.5u
X77 OUT+ b4.t5 OUT4.t0 VSS.t26 nfet_03v3 ad=0.156p pd=1.12u as=0.156p ps=1.12u w=0.6u l=0.5u
X78 OUT-.t89 b6.t9 OUT-.t89 VSS.t129 nfet_03v3 ad=0 pd=0 as=0.264p ps=2.08u w=0.6u l=0.5u
X79 OUT+.t101 OUT+.t100 OUT+.t101 VSS.t138 nfet_03v3 ad=0 pd=0 as=0.264p ps=2.08u w=0.6u l=0.5u
X80 OUT- b6b.t10 OUT6.t93 VSS.t41 nfet_03v3 ad=0.156p pd=1.12u as=0.156p ps=1.12u w=0.6u l=0.5u
X81 OUT+.t99 OUT+.t98 OUT+.t99 VSS.t93 nfet_03v3 ad=0 pd=0 as=0.264p ps=2.08u w=0.6u l=0.5u
X82 OUT5 b5b.t4 OUT-.t58 VSS.t190 nfet_03v3 ad=0.156p pd=1.12u as=0.156p ps=1.12u w=0.6u l=0.5u
X83 VSS SDn_2.t30 SD3_1.t57 VSS.t245 nfet_03v3 ad=0.156p pd=1.12u as=0.156p ps=1.12u w=0.6u l=0.5u
X84 G1_2 ITAIL.t5 SD2_1.t11 VSS.t108 nfet_03v3 ad=0.264p pd=2.08u as=0.156p ps=1.12u w=0.6u l=0.5u
X85 OUT6 IT.t35 SD3_1.t11 VSS.t133 nfet_03v3 ad=0.156p pd=1.12u as=0.156p ps=1.12u w=0.6u l=0.5u
X86 OUT-.t35 b5.t5 OUT-.t35 VSS.t196 nfet_03v3 ad=0 pd=0 as=0.264p ps=2.08u w=0.6u l=0.5u
X87 SD1_1 G1_2.t26 IT.t17 VDD.t20 pfet_03v3 ad=0.156p pd=1.12u as=0.156p ps=1.12u w=0.6u l=0.5u
X88 SDn_1 SDn_2.t31 VSS.t248 VSS.t38 nfet_03v3 ad=0.156p pd=1.12u as=0.156p ps=1.12u w=0.6u l=0.5u
X89 OUT5 b5.t6 OUT+.t140 VSS.t29 nfet_03v3 ad=0.156p pd=1.12u as=0.156p ps=1.12u w=0.6u l=0.5u
X90 VDD G1_1.t24 SD1_1.t10 VDD.t26 pfet_03v3 ad=0.264p pd=2.08u as=0.156p ps=1.12u w=0.6u l=0.5u
X91 SD3_1 IT.t36 OUT6.t27 VSS.t134 nfet_03v3 ad=0.156p pd=1.12u as=0.156p ps=1.12u w=0.6u l=0.5u
X92 VSS SDn_2.t32 SDn_1.t29 VSS.t124 nfet_03v3 ad=0.156p pd=1.12u as=0.156p ps=1.12u w=0.6u l=0.5u
X93 OUT-.t165 OUT-.t164 OUT-.t165 VSS.t80 nfet_03v3 ad=0 pd=0 as=0.264p ps=2.08u w=0.6u l=0.5u
X94 OUT-.t163 OUT-.t162 OUT-.t163 VSS.t79 nfet_03v3 ad=94.8f pd=0.92u as=0 ps=0 w=0.3u l=0.5u
X95 OUT5 b5b.t5 OUT-.t59 VSS.t194 nfet_03v3 ad=0.156p pd=1.12u as=0.156p ps=1.12u w=0.6u l=0.5u
X96 OUT-.t32 b5.t7 OUT-.t32 VSS.t198 nfet_03v3 ad=0 pd=0 as=0.156p ps=1.12u w=0.6u l=0.5u
X97 OUT+ b6.t10 OUT6.t86 VSS.t20 nfet_03v3 ad=0.156p pd=1.12u as=0.156p ps=1.12u w=0.6u l=0.5u
X98 OUT6 IT.t37 SD3_1.t13 VSS.t135 nfet_03v3 ad=0.156p pd=1.12u as=0.156p ps=1.12u w=0.6u l=0.5u
X99 SDn_1 IT.t38 OUT5.t6 VSS.t152 nfet_03v3 ad=0.156p pd=1.12u as=0.156p ps=1.12u w=0.6u l=0.5u
X100 G1_2 G1_2.t2 G1_1.t5 VDD.t35 pfet_03v3 ad=0.156p pd=1.12u as=0.156p ps=1.12u w=0.6u l=0.5u
X101 OUT+ b6.t11 OUT6.t85 VSS.t20 nfet_03v3 ad=0.156p pd=1.12u as=0.156p ps=1.12u w=0.6u l=0.5u
X102 OUT+.t127 b6b.t11 OUT+.t127 VSS.t90 nfet_03v3 ad=0 pd=0 as=0.264p ps=2.08u w=0.6u l=0.5u
X103 OUT+.t97 OUT+.t96 OUT+.t97 VSS.t82 nfet_03v3 ad=0 pd=0 as=0.156p ps=1.12u w=0.6u l=0.5u
X104 VDD b3b.t2 b3.t0 VDD.t69 pfet_03v3 ad=0.152p pd=1.64u as=0.152p ps=1.64u w=0.22u l=0.28u
X105 VSS G2.t6 SD2_5.t10 VSS.t10 nfet_03v3 ad=0.156p pd=1.12u as=0.156p ps=1.12u w=0.6u l=0.5u
X106 OUT6 b6b.t12 OUT-.t22 VSS.t19 nfet_03v3 ad=0.156p pd=1.12u as=0.156p ps=1.12u w=0.6u l=0.5u
X107 VSS Balance_Inverter_0.Inverter_0.OUT b4.t0 VSS.t183 nfet_03v3 ad=0.152p pd=1.64u as=0.152p ps=1.64u w=0.22u l=0.28u
X108 OUT+.t95 OUT+.t94 OUT+.t95 VSS.t81 nfet_03v3 ad=0.156p pd=1.12u as=0 ps=0 w=0.6u l=0.5u
X109 OUT6 IT.t39 SD3_1.t17 VSS.t153 nfet_03v3 ad=0.264p pd=2.08u as=0.156p ps=1.12u w=0.6u l=0.5u
X110 OUT+.t93 OUT+.t92 OUT+.t93 VSS.t111 nfet_03v3 ad=0 pd=0 as=0.264p ps=2.08u w=0.6u l=0.5u
X111 VSS G2.t7 SD2_5.t9 VSS.t13 nfet_03v3 ad=0.156p pd=1.12u as=0.156p ps=1.12u w=0.6u l=0.5u
X112 SD3_1 IT.t40 OUT6.t24 VSS.t154 nfet_03v3 ad=0.156p pd=1.12u as=0.156p ps=1.12u w=0.6u l=0.5u
X113 VSS SDn_2.t33 SDn_1.t28 VSS.t251 nfet_03v3 ad=0.156p pd=1.12u as=0.156p ps=1.12u w=0.6u l=0.5u
X114 OUT5 b5b.t6 OUT-.t60 VSS.t28 nfet_03v3 ad=0.156p pd=1.12u as=0.156p ps=1.12u w=0.6u l=0.5u
X115 VDD G1_1.t22 G1_1.t23 VDD.t42 pfet_03v3 ad=0.156p pd=1.12u as=0.156p ps=1.12u w=0.6u l=0.5u
X116 OUT+.t91 OUT+.t90 OUT+.t91 VSS.t111 nfet_03v3 ad=0 pd=0 as=0.264p ps=2.08u w=0.6u l=0.5u
X117 OUT- b1b.t2 OUT1.t1 VSS.t216 nfet_03v3 ad=0.156p pd=1.12u as=0.156p ps=1.12u w=0.6u l=0.5u
X118 SD3_1 SDn_2.t34 VSS.t255 VSS.t254 nfet_03v3 ad=0.156p pd=1.12u as=0.156p ps=1.12u w=0.6u l=0.5u
X119 OUT6 b6b.t13 OUT-.t64 VSS.t17 nfet_03v3 ad=0.156p pd=1.12u as=0.156p ps=1.12u w=0.6u l=0.5u
X120 OUT3 ITAIL.t6 SD2_4.t7 VSS.t107 nfet_03v3 ad=0.264p pd=2.08u as=0.156p ps=1.12u w=0.6u l=0.5u
X121 SDn_1 IT.t41 OUT5.t5 VSS.t261 nfet_03v3 ad=0.156p pd=1.12u as=0.156p ps=1.12u w=0.6u l=0.5u
X122 OUT-.t88 b6.t12 OUT-.t88 VSS.t72 nfet_03v3 ad=0 pd=0 as=0.156p ps=1.12u w=0.6u l=0.5u
X123 SD3_1 IT.t42 OUT6.t23 VSS.t306 nfet_03v3 ad=0.156p pd=1.12u as=0.156p ps=1.12u w=0.6u l=0.5u
X124 OUT-.t33 b5.t8 OUT-.t33 VSS.t195 nfet_03v3 ad=0 pd=0 as=0.264p ps=2.08u w=0.6u l=0.5u
X125 VSS SDn_2.t35 SD3_1.t55 VSS.t36 nfet_03v3 ad=0.156p pd=1.12u as=0.156p ps=1.12u w=0.6u l=0.5u
X126 SDn_1 IT.t43 OUT5.t4 VSS.t308 nfet_03v3 ad=0.156p pd=1.12u as=0.156p ps=1.12u w=0.6u l=0.5u
X127 SD1_1 G1_1.t25 VDD.t30 VDD.t29 pfet_03v3 ad=0.156p pd=1.12u as=0.264p ps=2.08u w=0.6u l=0.5u
X128 SD3_1 SDn_2.t36 VSS.t258 VSS.t37 nfet_03v3 ad=0.156p pd=1.12u as=0.156p ps=1.12u w=0.6u l=0.5u
X129 OUT+.t171 b3b.t3 OUT+.t171 VSS.t280 nfet_03v3 ad=94.8f pd=0.92u as=0 ps=0 w=0.3u l=0.5u
X130 OUT5 b5b.t7 OUT-.t27 VSS.t190 nfet_03v3 ad=0.156p pd=1.12u as=0.156p ps=1.12u w=0.6u l=0.5u
X131 OUT+.t89 OUT+.t88 OUT+.t89 VSS.t109 nfet_03v3 ad=94.8f pd=0.92u as=0 ps=0 w=0.3u l=0.5u
X132 VSS SDn_2.t37 SDn_1.t27 VSS.t49 nfet_03v3 ad=0.156p pd=1.12u as=0.156p ps=1.12u w=0.6u l=0.5u
X133 OUT5 b5.t9 OUT+.t139 VSS.t29 nfet_03v3 ad=0.156p pd=1.12u as=0.156p ps=1.12u w=0.6u l=0.5u
X134 OUT6 b6.t13 OUT+.t26 VSS.t19 nfet_03v3 ad=0.156p pd=1.12u as=0.156p ps=1.12u w=0.6u l=0.5u
X135 OUT6 b6b.t14 OUT-.t65 VSS.t19 nfet_03v3 ad=0.156p pd=1.12u as=0.156p ps=1.12u w=0.6u l=0.5u
X136 SD3_1 SDn_2.t38 VSS.t53 VSS.t52 nfet_03v3 ad=0.156p pd=1.12u as=0.156p ps=1.12u w=0.6u l=0.5u
X137 OUT+.t156 b4b.t4 OUT+.t156 VSS.t181 nfet_03v3 ad=0 pd=0 as=94.8f ps=0.92u w=0.3u l=0.5u
X138 VSS SDn_2.t39 SDn_1.t26 VSS.t54 nfet_03v3 ad=0.156p pd=1.12u as=0.156p ps=1.12u w=0.6u l=0.5u
X139 OUT-.t87 b6.t14 OUT-.t87 VSS.t17 nfet_03v3 ad=0 pd=0 as=0.156p ps=1.12u w=0.6u l=0.5u
X140 OUT- b5b.t8 OUT5.t26 VSS.t191 nfet_03v3 ad=0.156p pd=1.12u as=0.156p ps=1.12u w=0.6u l=0.5u
X141 SDn_1 SDn_2.t40 VSS.t58 VSS.t57 nfet_03v3 ad=0.156p pd=1.12u as=0.156p ps=1.12u w=0.6u l=0.5u
X142 OUT-.t6 b4.t6 OUT-.t6 VSS.t27 nfet_03v3 ad=0 pd=0 as=0.16p ps=1.64u w=0.3u l=0.5u
X143 VSS SDn_2.t41 SD3_1.t52 VSS.t130 nfet_03v3 ad=0.156p pd=1.12u as=0.156p ps=1.12u w=0.6u l=0.5u
X144 OUT-.t86 b6.t15 OUT-.t86 VSS.t90 nfet_03v3 ad=0 pd=0 as=0.264p ps=2.08u w=0.6u l=0.5u
X145 OUT+.t87 OUT+.t86 OUT+.t87 VSS.t82 nfet_03v3 ad=0 pd=0 as=0.156p ps=1.12u w=0.6u l=0.5u
X146 G1_1 G1_1.t20 VDD.t76 VDD.t75 pfet_03v3 ad=0.156p pd=1.12u as=0.264p ps=2.08u w=0.6u l=0.5u
X147 OUT+ b5.t10 OUT5.t40 VSS.t197 nfet_03v3 ad=0.156p pd=1.12u as=0.156p ps=1.12u w=0.6u l=0.5u
X148 OUT+.t166 b6b.t15 OUT+.t166 VSS.t39 nfet_03v3 ad=0 pd=0 as=0.156p ps=1.12u w=0.6u l=0.5u
X149 SD2_5 G2.t8 VSS.t207 VSS.t5 nfet_03v3 ad=0.156p pd=1.12u as=0.156p ps=1.12u w=0.6u l=0.5u
X150 SD2_1 G2.t9 VSS.t209 VSS.t208 nfet_03v3 ad=0.156p pd=1.12u as=0.156p ps=1.12u w=0.6u l=0.5u
X151 SDn_2 SDn_2.t12 VSS.t86 VSS.t85 nfet_03v3 ad=0.156p pd=1.12u as=0.156p ps=1.12u w=0.6u l=0.5u
X152 OUT-.t85 b6.t16 OUT-.t85 VSS.t40 nfet_03v3 ad=0 pd=0 as=0.264p ps=2.08u w=0.6u l=0.5u
X153 OUT-.t84 b6.t17 OUT-.t84 VSS.t89 nfet_03v3 ad=0 pd=0 as=0.156p ps=1.12u w=0.6u l=0.5u
X154 OUT-.t161 OUT-.t160 OUT-.t161 VSS.t315 nfet_03v3 ad=0 pd=0 as=0.156p ps=1.12u w=0.6u l=0.5u
X155 OUT5 b5b.t9 OUT-.t7 VSS.t28 nfet_03v3 ad=0.156p pd=1.12u as=0.156p ps=1.12u w=0.6u l=0.5u
X156 VSS Balance_Inverter_2.Inverter_0.OUT b2.t1 VSS.t114 nfet_03v3 ad=0.152p pd=1.64u as=0.152p ps=1.64u w=0.22u l=0.28u
X157 Balance_Inverter_3.Inverter_0.OUT B1.t1 VSS.t161 VSS.t160 nfet_03v3 ad=0.155p pd=1.64u as=0.155p ps=1.64u w=0.25u l=0.28u
X158 VSS SDn_2.t43 SD3_1.t51 VSS.t122 nfet_03v3 ad=0.156p pd=1.12u as=0.156p ps=1.12u w=0.6u l=0.5u
X159 VSS G2.t10 SD2_1.t5 VSS.t7 nfet_03v3 ad=0.156p pd=1.12u as=0.156p ps=1.12u w=0.6u l=0.5u
X160 SD3_1 SDn_2.t44 VSS.t292 VSS.t132 nfet_03v3 ad=0.156p pd=1.12u as=0.156p ps=1.12u w=0.6u l=0.5u
X161 OUT-.t83 b6.t18 OUT-.t83 VSS.t187 nfet_03v3 ad=0 pd=0 as=0.264p ps=2.08u w=0.6u l=0.5u
X162 OUT-.t159 OUT-.t158 OUT-.t159 VSS.t112 nfet_03v3 ad=0.156p pd=1.12u as=0 ps=0 w=0.6u l=0.5u
X163 OUT5 IT.t44 SDn_1.t11 VSS.t251 nfet_03v3 ad=0.156p pd=1.12u as=0.156p ps=1.12u w=0.6u l=0.5u
X164 OUT- b6b.t16 OUT6.t56 VSS.t21 nfet_03v3 ad=0.156p pd=1.12u as=0.156p ps=1.12u w=0.6u l=0.5u
X165 SD2_3 G2.t11 VSS.t214 VSS.t213 nfet_03v3 ad=0.264p pd=2.08u as=0.264p ps=2.08u w=0.6u l=0.5u
X166 VSS G2.t12 SD2_4.t2 VSS.t73 nfet_03v3 ad=0.264p pd=2.08u as=0.156p ps=1.12u w=0.6u l=0.5u
X167 OUT- b6b.t17 OUT6.t59 VSS.t21 nfet_03v3 ad=0.156p pd=1.12u as=0.156p ps=1.12u w=0.6u l=0.5u
X168 SDn_2 SDn_2.t10 VSS.t84 VSS.t83 nfet_03v3 ad=0.156p pd=1.12u as=0.156p ps=1.12u w=0.6u l=0.5u
X169 OUT-.t15 b3.t3 OUT-.t15 VSS.t71 nfet_03v3 ad=0.16p pd=1.64u as=0 ps=0 w=0.3u l=0.5u
X170 OUT+ b6.t19 OUT6.t83 VSS.t41 nfet_03v3 ad=0.156p pd=1.12u as=0.156p ps=1.12u w=0.6u l=0.5u
X171 OUT4 b4b.t5 OUT-.t44 VSS.t180 nfet_03v3 ad=0.156p pd=1.12u as=0.156p ps=1.12u w=0.6u l=0.5u
X172 OUT+ b6.t20 OUT6.t82 VSS.t41 nfet_03v3 ad=0.156p pd=1.12u as=0.156p ps=1.12u w=0.6u l=0.5u
X173 OUT-.t157 OUT-.t156 OUT-.t157 VSS.t81 nfet_03v3 ad=0.156p pd=1.12u as=0 ps=0 w=0.6u l=0.5u
X174 OUT6 b6b.t18 OUT-.t69 VSS.t16 nfet_03v3 ad=0.156p pd=1.12u as=0.156p ps=1.12u w=0.6u l=0.5u
X175 OUT6 b6b.t19 OUT-.t16 VSS.t17 nfet_03v3 ad=0.156p pd=1.12u as=0.156p ps=1.12u w=0.6u l=0.5u
X176 SDn_2 IT.t12 IT.t13 VSS.t178 nfet_03v3 ad=0.156p pd=1.12u as=0.156p ps=1.12u w=0.6u l=0.5u
X177 OUT+.t85 OUT+.t84 OUT+.t85 VSS.t145 nfet_03v3 ad=0 pd=0 as=0.264p ps=2.08u w=0.6u l=0.5u
X178 G2 ITAIL.t0 ITAIL.t1 VSS.t45 nfet_03v3 ad=0.156p pd=1.12u as=0.264p ps=2.08u w=0.6u l=0.5u
X179 OUT4 ITAIL.t7 SD2_5.t14 VSS.t318 nfet_03v3 ad=0.264p pd=2.08u as=0.156p ps=1.12u w=0.6u l=0.5u
X180 VSS SDn_2.t46 SD3_1.t49 VSS.t151 nfet_03v3 ad=0.156p pd=1.12u as=0.156p ps=1.12u w=0.6u l=0.5u
X181 VDD b1b.t3 b1.t1 VDD.t54 pfet_03v3 ad=0.152p pd=1.64u as=0.152p ps=1.64u w=0.22u l=0.28u
X182 OUT+.t158 b4b.t6 OUT+.t158 VSS.t35 nfet_03v3 ad=0.16p pd=1.64u as=0 ps=0 w=0.3u l=0.5u
X183 SDn_1 SDn_2.t47 VSS.t262 VSS.t261 nfet_03v3 ad=0.156p pd=1.12u as=0.156p ps=1.12u w=0.6u l=0.5u
X184 SD1_1 G1_2.t28 IT.t18 VDD.t36 pfet_03v3 ad=0.156p pd=1.12u as=0.156p ps=1.12u w=0.6u l=0.5u
X185 OUT+.t159 b4b.t7 OUT+.t159 VSS.t219 nfet_03v3 ad=0 pd=0 as=0.16p ps=1.64u w=0.3u l=0.5u
X186 b5b b5.t11 VDD.t53 VDD.t52 pfet_03v3 ad=0.152p pd=1.64u as=0.152p ps=1.64u w=0.22u l=0.28u
X187 G1_1 G1_1.t18 VDD.t8 VDD.t7 pfet_03v3 ad=0.156p pd=1.12u as=0.156p ps=1.12u w=0.6u l=0.5u
X188 SDn_1 IT.t45 OUT5.t3 VSS.t57 nfet_03v3 ad=0.156p pd=1.12u as=0.156p ps=1.12u w=0.6u l=0.5u
X189 OUT+ b6.t21 OUT6.t81 VSS.t22 nfet_03v3 ad=0.156p pd=1.12u as=0.156p ps=1.12u w=0.6u l=0.5u
X190 VSS G2.t13 SD2_3.t0 VSS.t76 nfet_03v3 ad=0.264p pd=2.08u as=0.264p ps=2.08u w=0.6u l=0.5u
X191 OUT+.t21 b6b.t20 OUT+.t21 VSS.t40 nfet_03v3 ad=0 pd=0 as=0.264p ps=2.08u w=0.6u l=0.5u
X192 OUT-.t155 OUT-.t154 OUT-.t155 VSS.t93 nfet_03v3 ad=0 pd=0 as=0.264p ps=2.08u w=0.6u l=0.5u
X193 SD2_5 ITAIL.t8 OUT4.t11 VSS.t104 nfet_03v3 ad=0.156p pd=1.12u as=0.264p ps=2.08u w=0.6u l=0.5u
X194 G1_2 ITAIL.t9 SD2_1.t10 VSS.t108 nfet_03v3 ad=0.264p pd=2.08u as=0.156p ps=1.12u w=0.6u l=0.5u
X195 SD3_1 SDn_2.t48 VSS.t263 VSS.t126 nfet_03v3 ad=0.156p pd=1.12u as=0.156p ps=1.12u w=0.6u l=0.5u
X196 OUT5 b5.t12 OUT+.t138 VSS.t190 nfet_03v3 ad=0.156p pd=1.12u as=0.156p ps=1.12u w=0.6u l=0.5u
X197 SD2_5 G2.t14 VSS.t156 VSS.t155 nfet_03v3 ad=0.156p pd=1.12u as=0.156p ps=1.12u w=0.6u l=0.5u
X198 OUT+.t150 b6b.t21 OUT+.t150 VSS.t187 nfet_03v3 ad=0 pd=0 as=0.264p ps=2.08u w=0.6u l=0.5u
X199 OUT5 b5b.t10 OUT-.t8 VSS.t29 nfet_03v3 ad=0.156p pd=1.12u as=0.156p ps=1.12u w=0.6u l=0.5u
X200 VDD G1_1.t16 G1_1.t17 VDD.t10 pfet_03v3 ad=0.156p pd=1.12u as=0.156p ps=1.12u w=0.6u l=0.5u
X201 OUT6 IT.t46 SD3_1.t20 VSS.t245 nfet_03v3 ad=0.156p pd=1.12u as=0.156p ps=1.12u w=0.6u l=0.5u
X202 VSS SDn_2.t49 SD3_1.t47 VSS.t133 nfet_03v3 ad=0.156p pd=1.12u as=0.156p ps=1.12u w=0.6u l=0.5u
X203 b5b B5.t0 VSS.t222 VSS.t221 nfet_03v3 ad=0.152p pd=1.64u as=0.152p ps=1.64u w=0.22u l=0.28u
X204 OUT+.t148 b5b.t11 OUT+.t148 VSS.t202 nfet_03v3 ad=0 pd=0 as=0.264p ps=2.08u w=0.6u l=0.5u
X205 OUT+.t160 b4b.t8 OUT+.t160 VSS.t220 nfet_03v3 ad=0 pd=0 as=0.16p ps=1.64u w=0.3u l=0.5u
X206 SD3_1 SDn_2.t50 VSS.t266 VSS.t134 nfet_03v3 ad=0.156p pd=1.12u as=0.156p ps=1.12u w=0.6u l=0.5u
X207 VSS SDn_2.t8 SDn_2.t9 VSS.t165 nfet_03v3 ad=0.156p pd=1.12u as=0.156p ps=1.12u w=0.6u l=0.5u
X208 VSS G2.t15 SD2_5.t6 VSS.t10 nfet_03v3 ad=0.156p pd=1.12u as=0.156p ps=1.12u w=0.6u l=0.5u
X209 b3b b3.t4 VDD.t14 VDD.t13 pfet_03v3 ad=0.152p pd=1.64u as=0.152p ps=1.64u w=0.22u l=0.28u
X210 OUT+.t149 b5b.t12 OUT+.t149 VSS.t203 nfet_03v3 ad=0 pd=0 as=0.264p ps=2.08u w=0.6u l=0.5u
X211 SD1_1 G1_1.t28 VDD.t87 VDD.t86 pfet_03v3 ad=0.156p pd=1.12u as=0.264p ps=2.08u w=0.6u l=0.5u
X212 OUT+.t146 b5b.t13 OUT+.t146 VSS.t29 nfet_03v3 ad=0 pd=0 as=0.156p ps=1.12u w=0.6u l=0.5u
X213 VSS SDn_2.t6 SDn_2.t7 VSS.t162 nfet_03v3 ad=0.264p pd=2.08u as=0.156p ps=1.12u w=0.6u l=0.5u
X214 OUT-.t153 OUT-.t152 OUT-.t153 VSS.t82 nfet_03v3 ad=0 pd=0 as=0.156p ps=1.12u w=0.6u l=0.5u
X215 OUT-.t19 b4.t7 OUT-.t19 VSS.t117 nfet_03v3 ad=0 pd=0 as=0.16p ps=1.64u w=0.3u l=0.5u
X216 SD3_1 SDn_2.t51 VSS.t303 VSS.t302 nfet_03v3 ad=0.156p pd=1.12u as=0.156p ps=1.12u w=0.6u l=0.5u
X217 VDD b4b.t9 b4.t1 VDD.t83 pfet_03v3 ad=0.152p pd=1.64u as=0.152p ps=1.64u w=0.22u l=0.28u
X218 OUT- b6b.t22 OUT6.t47 VSS.t22 nfet_03v3 ad=0.156p pd=1.12u as=0.156p ps=1.12u w=0.6u l=0.5u
X219 OUT+ b6.t22 OUT6.t80 VSS.t22 nfet_03v3 ad=0.156p pd=1.12u as=0.156p ps=1.12u w=0.6u l=0.5u
X220 VDD G1_1.t29 SD1_1.t15 VDD.t88 pfet_03v3 ad=0.156p pd=1.12u as=0.156p ps=1.12u w=0.6u l=0.5u
X221 Balance_Inverter_0.Inverter_0.OUT B4.t0 VSS.t323 VSS.t322 nfet_03v3 ad=0.155p pd=1.64u as=0.155p ps=1.64u w=0.25u l=0.28u
X222 OUT-.t151 OUT-.t150 OUT-.t151 VSS.t81 nfet_03v3 ad=0.156p pd=1.12u as=0 ps=0 w=0.6u l=0.5u
X223 OUT4 b4.t8 OUT+.t25 VSS.t118 nfet_03v3 ad=0.156p pd=1.12u as=0.156p ps=1.12u w=0.6u l=0.5u
X224 OUT+.t83 OUT+.t82 OUT+.t83 VSS.t93 nfet_03v3 ad=0 pd=0 as=0.264p ps=2.08u w=0.6u l=0.5u
X225 OUT5 b5.t13 OUT+.t143 VSS.t28 nfet_03v3 ad=0.156p pd=1.12u as=0.156p ps=1.12u w=0.6u l=0.5u
X226 OUT3 ITAIL.t10 SD2_4.t6 VSS.t107 nfet_03v3 ad=0.264p pd=2.08u as=0.156p ps=1.12u w=0.6u l=0.5u
X227 SD1_1 G1_2.t29 IT.t19 VDD.t37 pfet_03v3 ad=0.156p pd=1.12u as=0.156p ps=1.12u w=0.6u l=0.5u
X228 VSS SDn_2.t52 SD3_1.t44 VSS.t153 nfet_03v3 ad=0.264p pd=2.08u as=0.156p ps=1.12u w=0.6u l=0.5u
X229 OUT-.t149 OUT-.t148 OUT-.t149 VSS.t93 nfet_03v3 ad=0 pd=0 as=0.264p ps=2.08u w=0.6u l=0.5u
X230 OUT+.t147 b5b.t14 OUT+.t147 VSS.t201 nfet_03v3 ad=0 pd=0 as=0.156p ps=1.12u w=0.6u l=0.5u
X231 OUT+.t81 OUT+.t80 OUT+.t81 VSS.t91 nfet_03v3 ad=0 pd=0 as=0.156p ps=1.12u w=0.6u l=0.5u
X232 SD1_1 G1_1.t30 VDD.t39 VDD.t38 pfet_03v3 ad=0.156p pd=1.12u as=0.156p ps=1.12u w=0.6u l=0.5u
X233 OUT6 b6.t23 OUT+.t0 VSS.t16 nfet_03v3 ad=0.156p pd=1.12u as=0.156p ps=1.12u w=0.6u l=0.5u
X234 OUT4 b4b.t10 OUT-.t94 VSS.t182 nfet_03v3 ad=0.156p pd=1.12u as=0.156p ps=1.12u w=0.6u l=0.5u
X235 OUT+.t14 b2b.t3 OUT+.t14 VSS.t43 nfet_03v3 ad=0 pd=0 as=0.16p ps=1.64u w=0.3u l=0.5u
X236 OUT6 b6b.t23 OUT-.t42 VSS.t18 nfet_03v3 ad=0.156p pd=1.12u as=0.156p ps=1.12u w=0.6u l=0.5u
X237 OUT+.t79 OUT+.t78 OUT+.t79 VSS.t144 nfet_03v3 ad=0.156p pd=1.12u as=0 ps=0 w=0.6u l=0.5u
X238 SD3_1 SDn_2.t53 VSS.t307 VSS.t306 nfet_03v3 ad=0.156p pd=1.12u as=0.156p ps=1.12u w=0.6u l=0.5u
X239 G1_2 ITAIL.t11 SD2_1.t9 VSS.t105 nfet_03v3 ad=0.264p pd=2.08u as=0.156p ps=1.12u w=0.6u l=0.5u
X240 OUT- b4b.t11 OUT4.t18 VSS.t26 nfet_03v3 ad=0.156p pd=1.12u as=0.156p ps=1.12u w=0.6u l=0.5u
X241 VDD G1_1.t14 G1_1.t15 VDD.t92 pfet_03v3 ad=0.264p pd=2.08u as=0.156p ps=1.12u w=0.6u l=0.5u
X242 OUT- b6b.t24 OUT6.t49 VSS.t20 nfet_03v3 ad=0.156p pd=1.12u as=0.156p ps=1.12u w=0.6u l=0.5u
X243 b4b B4.t1 VSS.t311 VSS.t310 nfet_03v3 ad=0.152p pd=1.64u as=0.152p ps=1.64u w=0.22u l=0.28u
X244 SDn_1 SDn_2.t54 VSS.t309 VSS.t308 nfet_03v3 ad=0.156p pd=1.12u as=0.156p ps=1.12u w=0.6u l=0.5u
X245 OUT+ b4.t9 OUT4.t1 VSS.t32 nfet_03v3 ad=0.156p pd=1.12u as=0.156p ps=1.12u w=0.6u l=0.5u
X246 G1_1 G1_1.t12 VDD.t6 VDD.t5 pfet_03v3 ad=0.156p pd=1.12u as=0.156p ps=1.12u w=0.6u l=0.5u
X247 OUT5 IT.t47 SDn_1.t9 VSS.t97 nfet_03v3 ad=0.156p pd=1.12u as=0.156p ps=1.12u w=0.6u l=0.5u
X248 SDn_1 SDn_2.t55 VSS.t268 VSS.t125 nfet_03v3 ad=0.156p pd=1.12u as=0.156p ps=1.12u w=0.6u l=0.5u
X249 OUT-.t14 b3.t5 OUT-.t14 VSS.t68 nfet_03v3 ad=94.8f pd=0.92u as=0 ps=0 w=0.3u l=0.5u
X250 OUT1 b1.t2 OUT+.t120 VSS.t159 nfet_03v3 ad=0.156p pd=1.12u as=0.264p ps=2.08u w=0.6u l=0.5u
X251 OUT-.t147 OUT-.t146 OUT-.t147 VSS.t140 nfet_03v3 ad=0 pd=0 as=0.264p ps=2.08u w=0.6u l=0.5u
X252 OUT5 IT.t48 SDn_1.t8 VSS.t124 nfet_03v3 ad=0.156p pd=1.12u as=0.156p ps=1.12u w=0.6u l=0.5u
X253 OUT5 IT.t49 SDn_1.t7 VSS.t54 nfet_03v3 ad=0.156p pd=1.12u as=0.156p ps=1.12u w=0.6u l=0.5u
X254 VDD b5b.t15 b5.t1 VDD.t49 pfet_03v3 ad=0.152p pd=1.64u as=0.152p ps=1.64u w=0.22u l=0.28u
X255 OUT-.t145 OUT-.t144 OUT-.t145 VSS.t111 nfet_03v3 ad=0 pd=0 as=0.264p ps=2.08u w=0.6u l=0.5u
X256 OUT5 IT.t50 SDn_1.t6 VSS.t128 nfet_03v3 ad=0.156p pd=1.12u as=0.156p ps=1.12u w=0.6u l=0.5u
X257 OUT6 b6.t24 OUT+.t1 VSS.t17 nfet_03v3 ad=0.156p pd=1.12u as=0.156p ps=1.12u w=0.6u l=0.5u
X258 OUT-.t9 b4.t10 OUT-.t9 VSS.t33 nfet_03v3 ad=0 pd=0 as=0.16p ps=1.64u w=0.3u l=0.5u
X259 VSS SDn_2.t56 SD3_1.t42 VSS.t269 nfet_03v3 ad=0.156p pd=1.12u as=0.156p ps=1.12u w=0.6u l=0.5u
X260 OUT- b5b.t16 OUT5.t23 VSS.t186 nfet_03v3 ad=0.156p pd=1.12u as=0.156p ps=1.12u w=0.6u l=0.5u
X261 OUT6 b6.t25 OUT+.t189 VSS.t17 nfet_03v3 ad=0.156p pd=1.12u as=0.156p ps=1.12u w=0.6u l=0.5u
X262 SD3_1 IT.t51 OUT6.t21 VSS.t52 nfet_03v3 ad=0.156p pd=1.12u as=0.156p ps=1.12u w=0.6u l=0.5u
X263 SD1_1 G1_2.t30 IT.t20 VDD.t57 pfet_03v3 ad=0.156p pd=1.12u as=0.156p ps=1.12u w=0.6u l=0.5u
X264 OUT+ b5.t14 OUT5.t47 VSS.t200 nfet_03v3 ad=0.156p pd=1.12u as=0.156p ps=1.12u w=0.6u l=0.5u
X265 OUT+.t77 OUT+.t76 OUT+.t77 VSS.t80 nfet_03v3 ad=0 pd=0 as=0.264p ps=2.08u w=0.6u l=0.5u
X266 SD2_5 G2.t16 VSS.t6 VSS.t5 nfet_03v3 ad=0.156p pd=1.12u as=0.156p ps=1.12u w=0.6u l=0.5u
X267 OUT6 IT.t52 SD3_1.t7 VSS.t94 nfet_03v3 ad=0.156p pd=1.12u as=0.156p ps=1.12u w=0.6u l=0.5u
X268 OUT-.t71 b4.t11 OUT-.t71 VSS.t267 nfet_03v3 ad=0 pd=0 as=94.8f ps=0.92u w=0.3u l=0.5u
X269 SDn_2 IT.t10 IT.t11 VSS.t85 nfet_03v3 ad=0.156p pd=1.12u as=0.156p ps=1.12u w=0.6u l=0.5u
X270 OUT+.t75 OUT+.t74 OUT+.t75 VSS.t143 nfet_03v3 ad=0 pd=0 as=94.8f ps=0.92u w=0.3u l=0.5u
X271 OUT+.t73 OUT+.t72 OUT+.t73 VSS.t142 nfet_03v3 ad=0 pd=0 as=0.264p ps=2.08u w=0.6u l=0.5u
X272 OUT3 b3.t6 OUT+.t16 VSS.t69 nfet_03v3 ad=0.156p pd=1.12u as=0.156p ps=1.12u w=0.6u l=0.5u
X273 SD3_1 IT.t53 OUT6.t19 VSS.t102 nfet_03v3 ad=0.156p pd=1.12u as=0.156p ps=1.12u w=0.6u l=0.5u
X274 VSS G2.t17 SD2_1.t4 VSS.t7 nfet_03v3 ad=0.156p pd=1.12u as=0.156p ps=1.12u w=0.6u l=0.5u
X275 OUT+ b6.t26 OUT6.t76 VSS.t20 nfet_03v3 ad=0.156p pd=1.12u as=0.156p ps=1.12u w=0.6u l=0.5u
X276 OUT- b6b.t25 OUT6.t41 VSS.t20 nfet_03v3 ad=0.156p pd=1.12u as=0.156p ps=1.12u w=0.6u l=0.5u
X277 Balance_Inverter_2.Inverter_0.OUT B2.t0 VSS.t226 VSS.t225 nfet_03v3 ad=0.155p pd=1.64u as=0.155p ps=1.64u w=0.25u l=0.28u
X278 SDn_1 SDn_2.t57 VSS.t272 VSS.t152 nfet_03v3 ad=0.156p pd=1.12u as=0.156p ps=1.12u w=0.6u l=0.5u
X279 SD2_3 ITAIL.t12 OUT2.t5 VSS.t213 nfet_03v3 ad=0.264p pd=2.08u as=0.264p ps=2.08u w=0.6u l=0.5u
X280 OUT+.t122 b6b.t26 OUT+.t122 VSS.t129 nfet_03v3 ad=0 pd=0 as=0.264p ps=2.08u w=0.6u l=0.5u
X281 OUT+.t19 b6b.t27 OUT+.t19 VSS.t72 nfet_03v3 ad=0 pd=0 as=0.156p ps=1.12u w=0.6u l=0.5u
X282 OUT6 IT.t54 SD3_1.t3 VSS.t122 nfet_03v3 ad=0.156p pd=1.12u as=0.156p ps=1.12u w=0.6u l=0.5u
X283 SDn_1 IT.t55 OUT5.t2 VSS.t123 nfet_03v3 ad=0.156p pd=1.12u as=0.264p ps=2.08u w=0.6u l=0.5u
X284 OUT-.t143 OUT-.t142 OUT-.t143 VSS.t93 nfet_03v3 ad=0 pd=0 as=0.264p ps=2.08u w=0.6u l=0.5u
X285 OUT+.t71 OUT+.t70 OUT+.t71 VSS.t111 nfet_03v3 ad=0 pd=0 as=0.264p ps=2.08u w=0.6u l=0.5u
X286 OUT-.t141 OUT-.t140 OUT-.t141 VSS.t111 nfet_03v3 ad=0 pd=0 as=0.264p ps=2.08u w=0.6u l=0.5u
X287 OUT+.t20 b6b.t28 OUT+.t20 VSS.t17 nfet_03v3 ad=0 pd=0 as=0.156p ps=1.12u w=0.6u l=0.5u
X288 IT IT.t8 SDn_2.t18 VSS.t175 nfet_03v3 ad=0.156p pd=1.12u as=0.156p ps=1.12u w=0.6u l=0.5u
X289 SD2_2 ITAIL.t13 OUT1.t2 VSS.t45 nfet_03v3 ad=0.156p pd=1.12u as=0.264p ps=2.08u w=0.6u l=0.5u
X290 IT IT.t6 SDn_2.t17 VSS.t162 nfet_03v3 ad=0.264p pd=2.08u as=0.156p ps=1.12u w=0.6u l=0.5u
X291 SDn_1 IT.t58 OUT5.t1 VSS.t125 nfet_03v3 ad=0.156p pd=1.12u as=0.156p ps=1.12u w=0.6u l=0.5u
X292 OUT-.t139 OUT-.t138 OUT-.t139 VSS.t328 nfet_03v3 ad=0 pd=0 as=0.156p ps=1.12u w=0.6u l=0.5u
X293 Balance_Inverter_4.Inverter_0.OUT B5.t1 VSS.t224 VSS.t223 nfet_03v3 ad=0.155p pd=1.64u as=0.155p ps=1.64u w=0.25u l=0.28u
X294 OUT4 ITAIL.t14 SD2_5.t1 VSS.t106 nfet_03v3 ad=0.264p pd=2.08u as=0.156p ps=1.12u w=0.6u l=0.5u
X295 OUT+.t188 b3b.t4 OUT+.t188 VSS.t24 nfet_03v3 ad=0 pd=0 as=0.16p ps=1.64u w=0.3u l=0.5u
X296 OUT6 b6.t27 OUT+.t170 VSS.t16 nfet_03v3 ad=0.156p pd=1.12u as=0.156p ps=1.12u w=0.6u l=0.5u
X297 b2b B2.t1 VSS.t279 VSS.t278 nfet_03v3 ad=0.152p pd=1.64u as=0.152p ps=1.64u w=0.22u l=0.28u
X298 OUT-.t36 b5.t15 OUT-.t36 VSS.t199 nfet_03v3 ad=0 pd=0 as=0.156p ps=1.12u w=0.6u l=0.5u
X299 b1b b1.t3 VDD.t78 VDD.t77 pfet_03v3 ad=0.152p pd=1.64u as=0.152p ps=1.64u w=0.22u l=0.28u
X300 OUT+.t163 b4b.t12 OUT+.t163 VSS.t227 nfet_03v3 ad=0 pd=0 as=0.16p ps=1.64u w=0.3u l=0.5u
X301 SDn_1 SDn_2.t58 VSS.t274 VSS.t273 nfet_03v3 ad=0.156p pd=1.12u as=0.264p ps=2.08u w=0.6u l=0.5u
X302 OUT-.t82 b6.t28 OUT-.t82 VSS.t39 nfet_03v3 ad=0 pd=0 as=0.156p ps=1.12u w=0.6u l=0.5u
X303 SD3_1 SDn_2.t59 VSS.t276 VSS.t275 nfet_03v3 ad=0.156p pd=1.12u as=0.156p ps=1.12u w=0.6u l=0.5u
X304 OUT+.t23 b6b.t29 OUT+.t23 VSS.t89 nfet_03v3 ad=0 pd=0 as=0.156p ps=1.12u w=0.6u l=0.5u
X305 OUT-.t137 OUT-.t136 OUT-.t137 VSS.t91 nfet_03v3 ad=0 pd=0 as=0.156p ps=1.12u w=0.6u l=0.5u
X306 OUT-.t135 OUT-.t134 OUT-.t135 VSS.t136 nfet_03v3 ad=0.156p pd=1.12u as=0 ps=0 w=0.6u l=0.5u
X307 SDn_1 SDn_2.t60 VSS.t277 VSS.t123 nfet_03v3 ad=0.156p pd=1.12u as=0.264p ps=2.08u w=0.6u l=0.5u