* NGSPICE file created from CM_32_flat.ext - technology: gf180mcuC

.subckt pex_CM_32 G3_1 G0_2 G0_1 VSS G3_2 VDD     
X0 G3_2 G3_2.t70 G3_1.t95 VSS.t14 nfet_03v3 ad=0.264p pd=2.08u as=0.156p ps=1.12u w=0.6u l=0.5u
X1 G3_2 G3_2.t68 G3_1.t94 VSS.t85 nfet_03v3 ad=0.156p pd=1.12u as=0.156p ps=1.12u w=0.6u l=0.5u
X2 G1_2 G1_2.t55 VDD.t127 VDD.t1 pfet_03v3 ad=0.156p pd=1.12u as=0.156p ps=1.12u w=0.6u l=0.5u
X3 G3_2 G3_2.t78 G3_1.t93 VSS.t11 nfet_03v3 ad=0.156p pd=1.12u as=0.156p ps=1.12u w=0.6u l=0.5u
X4 VDD G1_2.t97 SD2_0.t38 VDD.t10 pfet_03v3 ad=0.156p pd=1.12u as=0.156p ps=1.12u w=0.6u l=0.5u
X5 SD2_0 G1_2.t98 VDD.t124 VDD.t7 pfet_03v3 ad=0.156p pd=1.12u as=0.156p ps=1.12u w=0.6u l=0.5u
X6 SD0_1 G0_2.t0 G1_1.t22 VSS.t111 nfet_03v3 ad=0.156p pd=1.12u as=0.156p ps=1.12u w=0.6u l=0.5u
X7 G1_2 G1_2.t77 VDD.t123 VDD.t0 pfet_03v3 ad=0.156p pd=1.12u as=0.156p ps=1.12u w=0.6u l=0.5u
X8 SD2_0 G1_2.t100 VDD.t122 VDD.t9 pfet_03v3 ad=0.156p pd=1.12u as=0.156p ps=1.12u w=0.6u l=0.5u
X9 G1_1 G0_2.t1 SD0_1.t30 VSS.t120 nfet_03v3 ad=0.156p pd=1.12u as=0.156p ps=1.12u w=0.6u l=0.5u
X10 SD0_1 G0_2.t2 G1_1.t21 VSS.t2 nfet_03v3 ad=0.156p pd=1.12u as=0.156p ps=1.12u w=0.6u l=0.5u
X11 VDD G1_2.t47 G1_2.t48 VDD.t67 pfet_03v3 ad=0.156p pd=1.12u as=0.156p ps=1.12u w=0.6u l=0.5u
X12 SD2_0 G1_2.t101 VDD.t119 VDD.t6 pfet_03v3 ad=0.156p pd=1.12u as=0.156p ps=1.12u w=0.6u l=0.5u
X13 G3_2 G3_2.t76 G3_1.t92 VSS.t8 nfet_03v3 ad=0.156p pd=1.12u as=0.156p ps=1.12u w=0.6u l=0.5u
X14 G1_2 G1_1.t94 G1_1.t95 VDD.t22 pfet_03v3 ad=0.156p pd=1.12u as=0.156p ps=1.12u w=0.6u l=0.5u
X15 G3_1 G3_2.t58 G3_2.t59 VSS.t81 nfet_03v3 ad=0.156p pd=1.12u as=0.156p ps=1.12u w=0.6u l=0.5u
X16 VDD G1_2.t45 G1_2.t46 VDD.t18 pfet_03v3 ad=0.156p pd=1.12u as=0.156p ps=1.12u w=0.6u l=0.5u
X17 VSS G0_1.t0 SD0_1.t32 VSS.t3 nfet_03v3 ad=0.156p pd=1.12u as=0.156p ps=1.12u w=0.6u l=0.5u
X18 G1_2 G1_2.t79 VDD.t116 VDD.t80 pfet_03v3 ad=0.156p pd=1.12u as=0.156p ps=1.12u w=0.6u l=0.5u
X19 VDD G1_2.t43 G1_2.t44 VDD.t77 pfet_03v3 ad=0.156p pd=1.12u as=0.156p ps=1.12u w=0.6u l=0.5u
X20 VSS G3_1.t30 G3_1.t31 VSS.t85 nfet_03v3 ad=0.156p pd=1.12u as=0.156p ps=1.12u w=0.6u l=0.5u
X21 G3_1 G3_1.t48 VSS.t84 VSS.t83 nfet_03v3 ad=0.156p pd=1.12u as=0.156p ps=1.12u w=0.6u l=0.5u
X22 SD0_1 G0_1.t1 VSS.t7 VSS.t6 nfet_03v3 ad=0.156p pd=1.12u as=0.156p ps=1.12u w=0.6u l=0.5u
X23 G1_1 G0_2.t3 SD0_1.t28 VSS.t153 nfet_03v3 ad=0.156p pd=1.12u as=0.156p ps=1.12u w=0.6u l=0.5u
X24 G1_1 G1_1.t92 G1_2.t3 VDD.t3 pfet_03v3 ad=0.156p pd=1.12u as=0.156p ps=1.12u w=0.6u l=0.5u
X25 SD2_0 G1_1.t97 G3_2.t88 VDD.t44 pfet_03v3 ad=0.156p pd=1.12u as=0.156p ps=1.12u w=0.6u l=0.5u
X26 SD2_0 G1_1.t98 G3_2.t89 VDD.t50 pfet_03v3 ad=0.156p pd=1.12u as=0.156p ps=1.12u w=0.6u l=0.5u
X27 VDD G1_2.t103 SD2_0.t34 VDD.t17 pfet_03v3 ad=0.156p pd=1.12u as=0.156p ps=1.12u w=0.6u l=0.5u
X28 G1_1 G1_1.t90 G1_2.t2 VDD.t2 pfet_03v3 ad=0.156p pd=1.12u as=0.156p ps=1.12u w=0.6u l=0.5u
X29 SD0_1 G0_1.t2 VSS.t89 VSS.t88 nfet_03v3 ad=0.156p pd=1.12u as=0.156p ps=1.12u w=0.6u l=0.5u
X30 VSS G0_1.t3 SD0_1.t35 VSS.t90 nfet_03v3 ad=0.156p pd=1.12u as=0.156p ps=1.12u w=0.6u l=0.5u
X31 G3_1 G3_1.t46 VSS.t82 VSS.t81 nfet_03v3 ad=0.156p pd=1.12u as=0.156p ps=1.12u w=0.6u l=0.5u
X32 G3_2 G3_2.t74 G3_1.t90 VSS.t76 nfet_03v3 ad=0.156p pd=1.12u as=0.156p ps=1.12u w=0.6u l=0.5u
X33 G1_2 G1_1.t88 G1_1.t89 VDD.t1 pfet_03v3 ad=0.156p pd=1.12u as=0.156p ps=1.12u w=0.6u l=0.5u
X34 VSS G0_1.t4 SD0_1.t36 VSS.t93 nfet_03v3 ad=0.156p pd=1.12u as=0.156p ps=1.12u w=0.6u l=0.5u
X35 SD0_1 G0_2.t4 G1_1.t20 VSS.t0 nfet_03v3 ad=0.156p pd=1.12u as=0.264p ps=2.08u w=0.6u l=0.5u
X36 VDD G1_2.t41 G1_2.t42 VDD.t13 pfet_03v3 ad=0.156p pd=1.12u as=0.156p ps=1.12u w=0.6u l=0.5u
X37 G3_1 G3_2.t56 G3_2.t57 VSS.t83 nfet_03v3 ad=0.156p pd=1.12u as=0.156p ps=1.12u w=0.6u l=0.5u
X38 G3_2 G3_2.t72 G3_1.t88 VSS.t73 nfet_03v3 ad=0.156p pd=1.12u as=0.156p ps=1.12u w=0.6u l=0.5u
X39 G1_2 G1_1.t86 G1_1.t87 VDD.t0 pfet_03v3 ad=0.156p pd=1.12u as=0.156p ps=1.12u w=0.6u l=0.5u
X40 G1_1 G0_2.t5 SD0_1.t26 VSS.t108 nfet_03v3 ad=0.156p pd=1.12u as=0.156p ps=1.12u w=0.6u l=0.5u
X41 G1_1 G0_2.t6 SD0_1.t25 VSS.t103 nfet_03v3 ad=0.156p pd=1.12u as=0.156p ps=1.12u w=0.6u l=0.5u
X42 G3_2 G1_1.t100 SD2_0.t58 VDD.t34 pfet_03v3 ad=0.156p pd=1.12u as=0.156p ps=1.12u w=0.6u l=0.5u
X43 SD0_1 G0_2.t7 G1_1.t19 VSS.t115 nfet_03v3 ad=0.156p pd=1.12u as=0.156p ps=1.12u w=0.6u l=0.5u
X44 G3_2 G1_1.t101 SD2_0.t59 VDD.t28 pfet_03v3 ad=0.156p pd=1.12u as=0.156p ps=1.12u w=0.6u l=0.5u
X45 VDD G1_2.t104 SD2_0.t33 VDD.t19 pfet_03v3 ad=0.156p pd=1.12u as=0.156p ps=1.12u w=0.6u l=0.5u
X46 SD0_1 G0_1.t5 VSS.t97 VSS.t96 nfet_03v3 ad=0.156p pd=1.12u as=0.156p ps=1.12u w=0.6u l=0.5u
X47 G3_2 G3_2.t86 G3_1.t87 VSS.t70 nfet_03v3 ad=0.156p pd=1.12u as=0.156p ps=1.12u w=0.6u l=0.5u
X48 G3_2 G1_1.t102 SD2_0.t47 VDD.t5 pfet_03v3 ad=0.156p pd=1.12u as=0.156p ps=1.12u w=0.6u l=0.5u
X49 VSS G0_1.t6 SD0_1.t38 VSS.t98 nfet_03v3 ad=0.156p pd=1.12u as=0.156p ps=1.12u w=0.6u l=0.5u
X50 G3_2 G1_1.t103 SD2_0.t48 VDD.t4 pfet_03v3 ad=0.156p pd=1.12u as=0.156p ps=1.12u w=0.6u l=0.5u
X51 G1_2 G1_2.t57 VDD.t107 VDD.t22 pfet_03v3 ad=0.156p pd=1.12u as=0.156p ps=1.12u w=0.6u l=0.5u
X52 G1_2 G1_1.t84 G1_1.t85 VDD.t80 pfet_03v3 ad=0.156p pd=1.12u as=0.156p ps=1.12u w=0.6u l=0.5u
X53 G3_1 G3_1.t44 VSS.t80 VSS.t79 nfet_03v3 ad=0.156p pd=1.12u as=0.264p ps=2.08u w=0.6u l=0.5u
X54 G1_1 G1_1.t82 G1_2.t87 VDD.t77 pfet_03v3 ad=0.156p pd=1.12u as=0.156p ps=1.12u w=0.6u l=0.5u
X55 SD0_1 G0_2.t8 G1_1.t18 VSS.t113 nfet_03v3 ad=0.156p pd=1.12u as=0.156p ps=1.12u w=0.6u l=0.5u
X56 SD0_1 G0_1.t7 VSS.t114 VSS.t113 nfet_03v3 ad=0.156p pd=1.12u as=0.156p ps=1.12u w=0.6u l=0.5u
X57 G1_2 G1_1.t80 G1_1.t81 VDD.t46 pfet_03v3 ad=0.156p pd=1.12u as=0.156p ps=1.12u w=0.6u l=0.5u
X58 VSS G3_1.t28 G3_1.t29 VSS.t76 nfet_03v3 ad=0.156p pd=1.12u as=0.156p ps=1.12u w=0.6u l=0.5u
X59 VDD G1_2.t39 G1_2.t40 VDD.t3 pfet_03v3 ad=0.156p pd=1.12u as=0.156p ps=1.12u w=0.6u l=0.5u
X60 G1_1 G0_2.t9 SD0_1.t22 VSS.t3 nfet_03v3 ad=0.156p pd=1.12u as=0.156p ps=1.12u w=0.6u l=0.5u
X61 VSS G3_1.t26 G3_1.t27 VSS.t73 nfet_03v3 ad=0.156p pd=1.12u as=0.156p ps=1.12u w=0.6u l=0.5u
X62 SD2_0 G1_1.t105 G3_2.t17 VDD.t7 pfet_03v3 ad=0.156p pd=1.12u as=0.156p ps=1.12u w=0.6u l=0.5u
X63 SD0_1 G0_1.t8 VSS.t116 VSS.t115 nfet_03v3 ad=0.156p pd=1.12u as=0.156p ps=1.12u w=0.6u l=0.5u
X64 G1_2 G1_1.t78 G1_1.t79 VDD.t16 pfet_03v3 ad=0.156p pd=1.12u as=0.264p ps=2.08u w=0.6u l=0.5u
X65 SD2_0 G1_2.t106 VDD.t104 VDD.t20 pfet_03v3 ad=0.156p pd=1.12u as=0.156p ps=1.12u w=0.6u l=0.5u
X66 SD2_0 G1_1.t106 G3_2.t18 VDD.t26 pfet_03v3 ad=0.156p pd=1.12u as=0.156p ps=1.12u w=0.6u l=0.5u
X67 G1_2 G1_1.t76 G1_1.t77 VDD.t15 pfet_03v3 ad=0.156p pd=1.12u as=0.156p ps=1.12u w=0.6u l=0.5u
X68 VSS G3_1.t24 G3_1.t25 VSS.t70 nfet_03v3 ad=0.156p pd=1.12u as=0.156p ps=1.12u w=0.6u l=0.5u
X69 G3_1 G3_1.t62 VSS.t69 VSS.t68 nfet_03v3 ad=0.156p pd=1.12u as=0.156p ps=1.12u w=0.6u l=0.5u
X70 SD2_0 G1_2.t107 VDD.t103 VDD.t21 pfet_03v3 ad=0.156p pd=1.12u as=0.156p ps=1.12u w=0.6u l=0.5u
X71 VSS G0_1.t9 SD0_1.t56 VSS.t146 nfet_03v3 ad=0.156p pd=1.12u as=0.156p ps=1.12u w=0.6u l=0.5u
X72 G1_2 G1_1.t74 G1_1.t75 VDD.t14 pfet_03v3 ad=0.156p pd=1.12u as=0.156p ps=1.12u w=0.6u l=0.5u
X73 SD2_0 G1_1.t107 G3_2.t19 VDD.t6 pfet_03v3 ad=0.156p pd=1.12u as=0.156p ps=1.12u w=0.6u l=0.5u
X74 G1_1 G1_1.t72 G1_2.t13 VDD.t13 pfet_03v3 ad=0.156p pd=1.12u as=0.156p ps=1.12u w=0.6u l=0.5u
X75 SD0_1 G0_1.t10 VSS.t149 VSS.t133 nfet_03v3 ad=0.156p pd=1.12u as=0.156p ps=1.12u w=0.6u l=0.5u
X76 SD0_1 G0_1.t11 VSS.t157 VSS.t0 nfet_03v3 ad=0.156p pd=1.12u as=0.264p ps=2.08u w=0.6u l=0.5u
X77 SD0_1 G0_2.t10 G1_1.t17 VSS.t117 nfet_03v3 ad=0.156p pd=1.12u as=0.156p ps=1.12u w=0.6u l=0.5u
X78 G3_1 G3_2.t54 G3_2.t55 VSS.t79 nfet_03v3 ad=0.156p pd=1.12u as=0.264p ps=2.08u w=0.6u l=0.5u
X79 VSS G0_1.t12 SD0_1.t63 VSS.t156 nfet_03v3 ad=0.156p pd=1.12u as=0.156p ps=1.12u w=0.6u l=0.5u
X80 G1_1 G0_2.t11 SD0_1.t20 VSS.t118 nfet_03v3 ad=0.156p pd=1.12u as=0.156p ps=1.12u w=0.6u l=0.5u
X81 SD0_1 G0_2.t12 G1_1.t16 VSS.t102 nfet_03v3 ad=0.156p pd=1.12u as=0.156p ps=1.12u w=0.6u l=0.5u
X82 G1_1 G1_1.t70 G1_2.t12 VDD.t12 pfet_03v3 ad=0.156p pd=1.12u as=0.156p ps=1.12u w=0.6u l=0.5u
X83 G3_2 G1_1.t110 SD2_0.t52 VDD.t67 pfet_03v3 ad=0.156p pd=1.12u as=0.156p ps=1.12u w=0.6u l=0.5u
X84 SD0_1 G0_2.t13 G1_1.t15 VSS.t1 nfet_03v3 ad=0.156p pd=1.12u as=0.156p ps=1.12u w=0.6u l=0.5u
X85 G1_1 G0_2.t14 SD0_1.t17 VSS.t101 nfet_03v3 ad=0.264p pd=2.08u as=0.156p ps=1.12u w=0.6u l=0.5u
X86 G1_1 G1_1.t68 G1_2.t11 VDD.t11 pfet_03v3 ad=0.264p pd=2.08u as=0.156p ps=1.12u w=0.6u l=0.5u
X87 VDD G1_2.t37 G1_2.t38 VDD.t8 pfet_03v3 ad=0.156p pd=1.12u as=0.156p ps=1.12u w=0.6u l=0.5u
X88 G3_1 G3_2.t52 G3_2.t53 VSS.t68 nfet_03v3 ad=0.156p pd=1.12u as=0.156p ps=1.12u w=0.6u l=0.5u
X89 SD2_0 G1_2.t108 VDD.t100 VDD.t50 pfet_03v3 ad=0.156p pd=1.12u as=0.156p ps=1.12u w=0.6u l=0.5u
X90 G1_1 G0_2.t15 SD0_1.t16 VSS.t90 nfet_03v3 ad=0.156p pd=1.12u as=0.156p ps=1.12u w=0.6u l=0.5u
X91 SD0_1 G0_2.t16 G1_1.t14 VSS.t141 nfet_03v3 ad=0.156p pd=1.12u as=0.156p ps=1.12u w=0.6u l=0.5u
X92 SD0_1 G0_1.t13 VSS.t152 VSS.t134 nfet_03v3 ad=0.156p pd=1.12u as=0.156p ps=1.12u w=0.6u l=0.5u
X93 G3_2 G1_1.t112 SD2_0.t0 VDD.t17 pfet_03v3 ad=0.156p pd=1.12u as=0.156p ps=1.12u w=0.6u l=0.5u
X94 G1_2 G1_2.t63 VDD.t99 VDD.t46 pfet_03v3 ad=0.156p pd=1.12u as=0.156p ps=1.12u w=0.6u l=0.5u
X95 VSS G0_1.t14 SD0_1.t61 VSS.t153 nfet_03v3 ad=0.156p pd=1.12u as=0.156p ps=1.12u w=0.6u l=0.5u
X96 G3_2 G3_2.t84 G3_1.t84 VSS.t55 nfet_03v3 ad=0.156p pd=1.12u as=0.156p ps=1.12u w=0.6u l=0.5u
X97 G3_2 G1_1.t113 SD2_0.t1 VDD.t18 pfet_03v3 ad=0.156p pd=1.12u as=0.156p ps=1.12u w=0.6u l=0.5u
X98 VSS G3_1.t22 G3_1.t23 VSS.t65 nfet_03v3 ad=0.156p pd=1.12u as=0.156p ps=1.12u w=0.6u l=0.5u
X99 G1_2 G1_2.t69 VDD.t98 VDD.t16 pfet_03v3 ad=0.156p pd=1.12u as=0.264p ps=2.08u w=0.6u l=0.5u
X100 VSS G0_1.t15 SD0_1.t39 VSS.t103 nfet_03v3 ad=0.156p pd=1.12u as=0.156p ps=1.12u w=0.6u l=0.5u
X101 G1_1 G1_1.t66 G1_2.t10 VDD.t10 pfet_03v3 ad=0.156p pd=1.12u as=0.156p ps=1.12u w=0.6u l=0.5u
X102 VSS G3_1.t20 G3_1.t21 VSS.t62 nfet_03v3 ad=0.156p pd=1.12u as=0.156p ps=1.12u w=0.6u l=0.5u
X103 G1_2 G1_2.t59 VDD.t97 VDD.t15 pfet_03v3 ad=0.156p pd=1.12u as=0.156p ps=1.12u w=0.6u l=0.5u
X104 G3_1 G3_1.t60 VSS.t61 VSS.t60 nfet_03v3 ad=0.156p pd=1.12u as=0.156p ps=1.12u w=0.6u l=0.5u
X105 G3_2 G1_1.t115 SD2_0.t2 VDD.t19 pfet_03v3 ad=0.156p pd=1.12u as=0.156p ps=1.12u w=0.6u l=0.5u
X106 G1_2 G1_2.t65 VDD.t96 VDD.t14 pfet_03v3 ad=0.156p pd=1.12u as=0.156p ps=1.12u w=0.6u l=0.5u
X107 SD0_1 G0_1.t16 VSS.t107 VSS.t106 nfet_03v3 ad=0.156p pd=1.12u as=0.156p ps=1.12u w=0.6u l=0.5u
X108 G1_2 G1_1.t64 G1_1.t65 VDD.t9 pfet_03v3 ad=0.156p pd=1.12u as=0.156p ps=1.12u w=0.6u l=0.5u
X109 VDD G1_2.t113 SD2_0.t29 VDD.t5 pfet_03v3 ad=0.156p pd=1.12u as=0.156p ps=1.12u w=0.6u l=0.5u
X110 VSS G0_1.t17 SD0_1.t53 VSS.t118 nfet_03v3 ad=0.156p pd=1.12u as=0.156p ps=1.12u w=0.6u l=0.5u
X111 VDD G1_2.t114 SD2_0.t28 VDD.t4 pfet_03v3 ad=0.156p pd=1.12u as=0.156p ps=1.12u w=0.6u l=0.5u
X112 G3_1 G3_1.t58 VSS.t59 VSS.t58 nfet_03v3 ad=0.156p pd=1.12u as=0.156p ps=1.12u w=0.6u l=0.5u
X113 VDD G1_2.t115 SD2_0.t27 VDD.t2 pfet_03v3 ad=0.156p pd=1.12u as=0.156p ps=1.12u w=0.6u l=0.5u
X114 SD0_1 G0_1.t18 VSS.t142 VSS.t141 nfet_03v3 ad=0.156p pd=1.12u as=0.156p ps=1.12u w=0.6u l=0.5u
X115 VSS G3_1.t18 G3_1.t19 VSS.t55 nfet_03v3 ad=0.156p pd=1.12u as=0.156p ps=1.12u w=0.6u l=0.5u
X116 SD2_0 G1_2.t116 VDD.t90 VDD.t1 pfet_03v3 ad=0.156p pd=1.12u as=0.156p ps=1.12u w=0.6u l=0.5u
X117 G3_2 G3_2.t26 G3_1.t83 VSS.t65 nfet_03v3 ad=0.156p pd=1.12u as=0.156p ps=1.12u w=0.6u l=0.5u
X118 G3_1 G3_2.t50 G3_2.t51 VSS.t53 nfet_03v3 ad=0.156p pd=1.12u as=0.156p ps=1.12u w=0.6u l=0.5u
X119 G3_1 G3_2.t48 G3_2.t49 VSS.t51 nfet_03v3 ad=0.156p pd=1.12u as=0.156p ps=1.12u w=0.6u l=0.5u
X120 SD2_0 G1_2.t117 VDD.t89 VDD.t0 pfet_03v3 ad=0.156p pd=1.12u as=0.156p ps=1.12u w=0.6u l=0.5u
X121 VDD G1_2.t35 G1_2.t36 VDD.t12 pfet_03v3 ad=0.156p pd=1.12u as=0.156p ps=1.12u w=0.6u l=0.5u
X122 G1_1 G1_1.t62 G1_2.t8 VDD.t8 pfet_03v3 ad=0.156p pd=1.12u as=0.156p ps=1.12u w=0.6u l=0.5u
X123 G1_1 G0_2.t17 SD0_1.t14 VSS.t124 nfet_03v3 ad=0.156p pd=1.12u as=0.156p ps=1.12u w=0.6u l=0.5u
X124 G1_2 G1_2.t67 VDD.t86 VDD.t44 pfet_03v3 ad=0.156p pd=1.12u as=0.156p ps=1.12u w=0.6u l=0.5u
X125 G3_1 G3_2.t46 G3_2.t47 VSS.t49 nfet_03v3 ad=0.156p pd=1.12u as=0.156p ps=1.12u w=0.6u l=0.5u
X126 VDD G1_2.t33 G1_2.t34 VDD.t11 pfet_03v3 ad=0.264p pd=2.08u as=0.156p ps=1.12u w=0.6u l=0.5u
X127 SD0_1 G0_2.t18 G1_1.t13 VSS.t88 nfet_03v3 ad=0.156p pd=1.12u as=0.156p ps=1.12u w=0.6u l=0.5u
X128 G3_2 G3_2.t24 G3_1.t79 VSS.t62 nfet_03v3 ad=0.156p pd=1.12u as=0.156p ps=1.12u w=0.6u l=0.5u
X129 G3_1 G3_2.t44 G3_2.t45 VSS.t60 nfet_03v3 ad=0.156p pd=1.12u as=0.156p ps=1.12u w=0.6u l=0.5u
X130 SD2_0 G1_1.t117 G3_2.t3 VDD.t20 pfet_03v3 ad=0.156p pd=1.12u as=0.156p ps=1.12u w=0.6u l=0.5u
X131 SD2_0 G1_2.t119 VDD.t82 VDD.t26 pfet_03v3 ad=0.156p pd=1.12u as=0.156p ps=1.12u w=0.6u l=0.5u
X132 SD2_0 G1_1.t118 G3_2.t4 VDD.t21 pfet_03v3 ad=0.156p pd=1.12u as=0.156p ps=1.12u w=0.6u l=0.5u
X133 G1_1 G0_2.t19 SD0_1.t12 VSS.t119 nfet_03v3 ad=0.156p pd=1.12u as=0.156p ps=1.12u w=0.6u l=0.5u
X134 SD0_1 G0_2.t20 G1_1.t12 VSS.t134 nfet_03v3 ad=0.156p pd=1.12u as=0.156p ps=1.12u w=0.6u l=0.5u
X135 G3_1 G3_2.t42 G3_2.t43 VSS.t58 nfet_03v3 ad=0.156p pd=1.12u as=0.156p ps=1.12u w=0.6u l=0.5u
X136 SD2_0 G1_1.t119 G3_2.t5 VDD.t22 pfet_03v3 ad=0.156p pd=1.12u as=0.156p ps=1.12u w=0.6u l=0.5u
X137 SD2_0 G1_2.t120 VDD.t81 VDD.t80 pfet_03v3 ad=0.156p pd=1.12u as=0.156p ps=1.12u w=0.6u l=0.5u
X138 SD0_1 G0_2.t21 G1_1.t11 VSS.t6 nfet_03v3 ad=0.156p pd=1.12u as=0.156p ps=1.12u w=0.6u l=0.5u
X139 G3_1 G3_2.t40 G3_2.t41 VSS.t44 nfet_03v3 ad=0.156p pd=1.12u as=0.156p ps=1.12u w=0.6u l=0.5u
X140 VDD G1_2.t121 SD2_0.t22 VDD.t77 pfet_03v3 ad=0.156p pd=1.12u as=0.156p ps=1.12u w=0.6u l=0.5u
X141 G3_2 G1_1.t120 SD2_0.t6 VDD.t3 pfet_03v3 ad=0.156p pd=1.12u as=0.156p ps=1.12u w=0.6u l=0.5u
X142 VDD G1_2.t31 G1_2.t32 VDD.t10 pfet_03v3 ad=0.156p pd=1.12u as=0.156p ps=1.12u w=0.6u l=0.5u
X143 G3_1 G3_1.t56 VSS.t54 VSS.t53 nfet_03v3 ad=0.156p pd=1.12u as=0.156p ps=1.12u w=0.6u l=0.5u
X144 G3_1 G3_1.t54 VSS.t52 VSS.t51 nfet_03v3 ad=0.156p pd=1.12u as=0.156p ps=1.12u w=0.6u l=0.5u
X145 G1_2 G1_2.t61 VDD.t74 VDD.t9 pfet_03v3 ad=0.156p pd=1.12u as=0.156p ps=1.12u w=0.6u l=0.5u
X146 SD0_1 G0_1.t19 VSS.t131 VSS.t130 nfet_03v3 ad=0.156p pd=1.12u as=0.156p ps=1.12u w=0.6u l=0.5u
X147 VDD G1_2.t29 G1_2.t30 VDD.t34 pfet_03v3 ad=0.156p pd=1.12u as=0.156p ps=1.12u w=0.6u l=0.5u
X148 VDD G1_2.t27 G1_2.t28 VDD.t28 pfet_03v3 ad=0.156p pd=1.12u as=0.156p ps=1.12u w=0.6u l=0.5u
X149 G3_1 G3_1.t52 VSS.t50 VSS.t49 nfet_03v3 ad=0.156p pd=1.12u as=0.156p ps=1.12u w=0.6u l=0.5u
X150 VDD G1_2.t123 SD2_0.t21 VDD.t67 pfet_03v3 ad=0.156p pd=1.12u as=0.156p ps=1.12u w=0.6u l=0.5u
X151 SD0_1 G0_1.t20 VSS.t132 VSS.t2 nfet_03v3 ad=0.156p pd=1.12u as=0.156p ps=1.12u w=0.6u l=0.5u
X152 VSS G3_1.t16 G3_1.t17 VSS.t46 nfet_03v3 ad=0.156p pd=1.12u as=0.156p ps=1.12u w=0.6u l=0.5u
X153 VSS G0_1.t21 SD0_1.t51 VSS.t101 nfet_03v3 ad=0.264p pd=2.08u as=0.156p ps=1.12u w=0.6u l=0.5u
X154 VDD G1_2.t124 SD2_0.t20 VDD.t13 pfet_03v3 ad=0.156p pd=1.12u as=0.156p ps=1.12u w=0.6u l=0.5u
X155 SD0_1 G0_2.t22 G1_1.t10 VSS.t96 nfet_03v3 ad=0.156p pd=1.12u as=0.156p ps=1.12u w=0.6u l=0.5u
X156 G3_1 G3_1.t50 VSS.t45 VSS.t44 nfet_03v3 ad=0.156p pd=1.12u as=0.156p ps=1.12u w=0.6u l=0.5u
X157 G3_2 G3_2.t62 G3_1.t75 VSS.t41 nfet_03v3 ad=0.156p pd=1.12u as=0.156p ps=1.12u w=0.6u l=0.5u
X158 VSS G0_1.t22 SD0_1.t52 VSS.t119 nfet_03v3 ad=0.156p pd=1.12u as=0.156p ps=1.12u w=0.6u l=0.5u
X159 VDD G1_2.t125 SD2_0.t19 VDD.t18 pfet_03v3 ad=0.156p pd=1.12u as=0.156p ps=1.12u w=0.6u l=0.5u
X160 G1_2 G1_1.t60 G1_1.t61 VDD.t44 pfet_03v3 ad=0.156p pd=1.12u as=0.156p ps=1.12u w=0.6u l=0.5u
X161 G1_1 G0_2.t23 SD0_1.t8 VSS.t156 nfet_03v3 ad=0.156p pd=1.12u as=0.156p ps=1.12u w=0.6u l=0.5u
X162 G1_2 G1_2.t71 VDD.t62 VDD.t7 pfet_03v3 ad=0.156p pd=1.12u as=0.156p ps=1.12u w=0.6u l=0.5u
X163 G1_1 G0_2.t24 SD0_1.t7 VSS.t146 nfet_03v3 ad=0.156p pd=1.12u as=0.156p ps=1.12u w=0.6u l=0.5u
X164 G3_1 G3_2.t38 G3_2.t39 VSS.t37 nfet_03v3 ad=0.156p pd=1.12u as=0.156p ps=1.12u w=0.6u l=0.5u
X165 G1_2 G1_2.t49 VDD.t60 VDD.t6 pfet_03v3 ad=0.156p pd=1.12u as=0.156p ps=1.12u w=0.6u l=0.5u
X166 G3_2 G3_2.t60 G3_1.t73 VSS.t46 nfet_03v3 ad=0.156p pd=1.12u as=0.156p ps=1.12u w=0.6u l=0.5u
X167 G3_1 G3_2.t36 G3_2.t37 VSS.t35 nfet_03v3 ad=0.156p pd=1.12u as=0.156p ps=1.12u w=0.6u l=0.5u
X168 G3_2 G1_1.t121 SD2_0.t39 VDD.t2 pfet_03v3 ad=0.156p pd=1.12u as=0.156p ps=1.12u w=0.6u l=0.5u
X169 SD2_0 G1_1.t122 G3_2.t8 VDD.t46 pfet_03v3 ad=0.156p pd=1.12u as=0.156p ps=1.12u w=0.6u l=0.5u
X170 G1_1 G0_2.t25 SD0_1.t6 VSS.t143 nfet_03v3 ad=0.156p pd=1.12u as=0.156p ps=1.12u w=0.6u l=0.5u
X171 VSS G3_1.t14 G3_1.t15 VSS.t41 nfet_03v3 ad=0.156p pd=1.12u as=0.156p ps=1.12u w=0.6u l=0.5u
X172 SD2_0 G1_1.t123 G3_2.t9 VDD.t1 pfet_03v3 ad=0.156p pd=1.12u as=0.156p ps=1.12u w=0.6u l=0.5u
X173 G1_1 G1_1.t58 G1_2.t93 VDD.t34 pfet_03v3 ad=0.156p pd=1.12u as=0.156p ps=1.12u w=0.6u l=0.5u
X174 SD0_1 G0_2.t26 G1_1.t9 VSS.t130 nfet_03v3 ad=0.156p pd=1.12u as=0.156p ps=1.12u w=0.6u l=0.5u
X175 SD2_0 G1_1.t125 G3_2.t10 VDD.t0 pfet_03v3 ad=0.156p pd=1.12u as=0.156p ps=1.12u w=0.6u l=0.5u
X176 G1_1 G1_1.t56 G1_2.t92 VDD.t28 pfet_03v3 ad=0.156p pd=1.12u as=0.156p ps=1.12u w=0.6u l=0.5u
X177 VSS G0_1.t23 SD0_1.t45 VSS.t120 nfet_03v3 ad=0.156p pd=1.12u as=0.156p ps=1.12u w=0.6u l=0.5u
X178 SD2_0 G1_1.t127 G3_2.t11 VDD.t16 pfet_03v3 ad=0.156p pd=1.12u as=0.264p ps=2.08u w=0.6u l=0.5u
X179 SD2_0 G1_1.t128 G3_2.t12 VDD.t15 pfet_03v3 ad=0.156p pd=1.12u as=0.156p ps=1.12u w=0.6u l=0.5u
X180 G3_1 G3_2.t34 G3_2.t35 VSS.t33 nfet_03v3 ad=0.156p pd=1.12u as=0.156p ps=1.12u w=0.6u l=0.5u
X181 SD2_0 G1_1.t129 G3_2.t13 VDD.t14 pfet_03v3 ad=0.156p pd=1.12u as=0.156p ps=1.12u w=0.6u l=0.5u
X182 G1_2 G1_1.t54 G1_1.t55 VDD.t50 pfet_03v3 ad=0.156p pd=1.12u as=0.156p ps=1.12u w=0.6u l=0.5u
X183 G3_2 G3_2.t66 G3_1.t70 VSS.t30 nfet_03v3 ad=0.156p pd=1.12u as=0.156p ps=1.12u w=0.6u l=0.5u
X184 G3_1 G3_1.t42 VSS.t40 VSS.t39 nfet_03v3 ad=0.156p pd=1.12u as=0.156p ps=1.12u w=0.6u l=0.5u
X185 G3_2 G3_2.t64 G3_1.t69 VSS.t27 nfet_03v3 ad=0.156p pd=1.12u as=0.156p ps=1.12u w=0.6u l=0.5u
X186 VDD G1_2.t25 G1_2.t26 VDD.t17 pfet_03v3 ad=0.156p pd=1.12u as=0.156p ps=1.12u w=0.6u l=0.5u
X187 G3_1 G3_1.t40 VSS.t38 VSS.t37 nfet_03v3 ad=0.156p pd=1.12u as=0.156p ps=1.12u w=0.6u l=0.5u
X188 SD2_0 G1_2.t128 VDD.t58 VDD.t22 pfet_03v3 ad=0.156p pd=1.12u as=0.156p ps=1.12u w=0.6u l=0.5u
X189 SD2_0 G1_1.t130 G3_2.t92 VDD.t80 pfet_03v3 ad=0.156p pd=1.12u as=0.156p ps=1.12u w=0.6u l=0.5u
X190 G3_1 G3_1.t38 VSS.t36 VSS.t35 nfet_03v3 ad=0.156p pd=1.12u as=0.156p ps=1.12u w=0.6u l=0.5u
X191 G3_2 G1_1.t131 SD2_0.t61 VDD.t77 pfet_03v3 ad=0.156p pd=1.12u as=0.156p ps=1.12u w=0.6u l=0.5u
X192 VDD G1_2.t129 SD2_0.t17 VDD.t3 pfet_03v3 ad=0.156p pd=1.12u as=0.156p ps=1.12u w=0.6u l=0.5u
X193 G1_2 G1_1.t52 G1_1.t53 VDD.t7 pfet_03v3 ad=0.156p pd=1.12u as=0.156p ps=1.12u w=0.6u l=0.5u
X194 SD0_1 G0_1.t24 VSS.t123 VSS.t117 nfet_03v3 ad=0.156p pd=1.12u as=0.156p ps=1.12u w=0.6u l=0.5u
X195 VSS G0_1.t25 SD0_1.t47 VSS.t125 nfet_03v3 ad=0.156p pd=1.12u as=0.156p ps=1.12u w=0.6u l=0.5u
X196 G3_2 G1_1.t132 SD2_0.t62 VDD.t12 pfet_03v3 ad=0.156p pd=1.12u as=0.156p ps=1.12u w=0.6u l=0.5u
X197 VDD G1_2.t130 SD2_0.t16 VDD.t8 pfet_03v3 ad=0.156p pd=1.12u as=0.156p ps=1.12u w=0.6u l=0.5u
X198 G3_2 G1_1.t133 SD2_0.t63 VDD.t11 pfet_03v3 ad=0.264p pd=2.08u as=0.156p ps=1.12u w=0.6u l=0.5u
X199 G3_1 G3_1.t36 VSS.t34 VSS.t33 nfet_03v3 ad=0.156p pd=1.12u as=0.156p ps=1.12u w=0.6u l=0.5u
X200 G1_2 G1_1.t50 G1_1.t51 VDD.t6 pfet_03v3 ad=0.156p pd=1.12u as=0.156p ps=1.12u w=0.6u l=0.5u
X201 G1_1 G1_1.t48 G1_2.t5 VDD.t5 pfet_03v3 ad=0.156p pd=1.12u as=0.156p ps=1.12u w=0.6u l=0.5u
X202 VDD G1_2.t23 G1_2.t24 VDD.t19 pfet_03v3 ad=0.156p pd=1.12u as=0.156p ps=1.12u w=0.6u l=0.5u
X203 VSS G3_1.t12 G3_1.t13 VSS.t30 nfet_03v3 ad=0.156p pd=1.12u as=0.156p ps=1.12u w=0.6u l=0.5u
X204 G3_1 G3_2.t32 G3_2.t33 VSS.t39 nfet_03v3 ad=0.156p pd=1.12u as=0.156p ps=1.12u w=0.6u l=0.5u
X205 VSS G3_1.t10 G3_1.t11 VSS.t27 nfet_03v3 ad=0.156p pd=1.12u as=0.156p ps=1.12u w=0.6u l=0.5u
X206 VSS G3_1.t8 G3_1.t9 VSS.t24 nfet_03v3 ad=0.156p pd=1.12u as=0.156p ps=1.12u w=0.6u l=0.5u
X207 G1_1 G1_1.t46 G1_2.t4 VDD.t4 pfet_03v3 ad=0.156p pd=1.12u as=0.156p ps=1.12u w=0.6u l=0.5u
X208 G3_2 G1_1.t136 SD2_0.t54 VDD.t13 pfet_03v3 ad=0.156p pd=1.12u as=0.156p ps=1.12u w=0.6u l=0.5u
X209 G3_2 G1_1.t137 SD2_0.t55 VDD.t10 pfet_03v3 ad=0.156p pd=1.12u as=0.156p ps=1.12u w=0.6u l=0.5u
X210 SD2_0 G1_1.t138 G3_2.t14 VDD.t9 pfet_03v3 ad=0.156p pd=1.12u as=0.156p ps=1.12u w=0.6u l=0.5u
X211 G1_2 G1_2.t51 VDD.t51 VDD.t50 pfet_03v3 ad=0.156p pd=1.12u as=0.156p ps=1.12u w=0.6u l=0.5u
X212 G1_2 G1_2.t53 VDD.t49 VDD.t20 pfet_03v3 ad=0.156p pd=1.12u as=0.156p ps=1.12u w=0.6u l=0.5u
X213 G1_1 G1_1.t44 G1_2.t85 VDD.t17 pfet_03v3 ad=0.156p pd=1.12u as=0.156p ps=1.12u w=0.6u l=0.5u
X214 G1_2 G1_2.t75 VDD.t48 VDD.t21 pfet_03v3 ad=0.156p pd=1.12u as=0.156p ps=1.12u w=0.6u l=0.5u
X215 G1_2 G1_1.t42 G1_1.t43 VDD.t26 pfet_03v3 ad=0.156p pd=1.12u as=0.156p ps=1.12u w=0.6u l=0.5u
X216 G3_2 G3_2.t82 G3_1.t67 VSS.t24 nfet_03v3 ad=0.156p pd=1.12u as=0.156p ps=1.12u w=0.6u l=0.5u
X217 VSS G0_1.t26 SD0_1.t48 VSS.t124 nfet_03v3 ad=0.156p pd=1.12u as=0.156p ps=1.12u w=0.6u l=0.5u
X218 SD0_1 G0_1.t27 VSS.t150 VSS.t102 nfet_03v3 ad=0.156p pd=1.12u as=0.156p ps=1.12u w=0.6u l=0.5u
X219 SD2_0 G1_2.t134 VDD.t47 VDD.t46 pfet_03v3 ad=0.156p pd=1.12u as=0.156p ps=1.12u w=0.6u l=0.5u
X220 G3_1 G3_1.t34 VSS.t23 VSS.t22 nfet_03v3 ad=0.156p pd=1.12u as=0.156p ps=1.12u w=0.6u l=0.5u
X221 G3_1 G3_1.t32 VSS.t21 VSS.t20 nfet_03v3 ad=0.156p pd=1.12u as=0.156p ps=1.12u w=0.6u l=0.5u
X222 SD2_0 G1_2.t135 VDD.t45 VDD.t44 pfet_03v3 ad=0.156p pd=1.12u as=0.156p ps=1.12u w=0.6u l=0.5u
X223 G1_1 G0_2.t27 SD0_1.t4 VSS.t93 nfet_03v3 ad=0.156p pd=1.12u as=0.156p ps=1.12u w=0.6u l=0.5u
X224 SD2_0 G1_2.t136 VDD.t43 VDD.t16 pfet_03v3 ad=0.156p pd=1.12u as=0.264p ps=2.08u w=0.6u l=0.5u
X225 SD2_0 G1_2.t137 VDD.t42 VDD.t15 pfet_03v3 ad=0.156p pd=1.12u as=0.156p ps=1.12u w=0.6u l=0.5u
X226 SD0_1 G0_2.t28 G1_1.t8 VSS.t133 nfet_03v3 ad=0.156p pd=1.12u as=0.156p ps=1.12u w=0.6u l=0.5u
X227 SD2_0 G1_2.t138 VDD.t41 VDD.t14 pfet_03v3 ad=0.156p pd=1.12u as=0.156p ps=1.12u w=0.6u l=0.5u
X228 G1_1 G1_1.t40 G1_2.t83 VDD.t19 pfet_03v3 ad=0.156p pd=1.12u as=0.156p ps=1.12u w=0.6u l=0.5u
X229 VDD G1_2.t21 G1_2.t22 VDD.t5 pfet_03v3 ad=0.156p pd=1.12u as=0.156p ps=1.12u w=0.6u l=0.5u
X230 VDD G1_2.t19 G1_2.t20 VDD.t4 pfet_03v3 ad=0.156p pd=1.12u as=0.156p ps=1.12u w=0.6u l=0.5u
X231 G1_1 G1_1.t38 G1_2.t82 VDD.t67 pfet_03v3 ad=0.156p pd=1.12u as=0.156p ps=1.12u w=0.6u l=0.5u
X232 SD0_1 G0_1.t28 VSS.t151 VSS.t1 nfet_03v3 ad=0.156p pd=1.12u as=0.156p ps=1.12u w=0.6u l=0.5u
X233 G1_1 G0_2.t29 SD0_1.t2 VSS.t98 nfet_03v3 ad=0.156p pd=1.12u as=0.156p ps=1.12u w=0.6u l=0.5u
X234 VSS G3_1.t6 G3_1.t7 VSS.t17 nfet_03v3 ad=0.156p pd=1.12u as=0.156p ps=1.12u w=0.6u l=0.5u
X235 SD0_1 G0_2.t30 G1_1.t7 VSS.t106 nfet_03v3 ad=0.156p pd=1.12u as=0.156p ps=1.12u w=0.6u l=0.5u
X236 G3_1 G3_2.t30 G3_2.t31 VSS.t22 nfet_03v3 ad=0.156p pd=1.12u as=0.156p ps=1.12u w=0.6u l=0.5u
X237 VSS G3_1.t4 G3_1.t5 VSS.t14 nfet_03v3 ad=0.264p pd=2.08u as=0.156p ps=1.12u w=0.6u l=0.5u
X238 G1_1 G1_1.t36 G1_2.t81 VDD.t18 pfet_03v3 ad=0.156p pd=1.12u as=0.156p ps=1.12u w=0.6u l=0.5u
X239 G3_1 G3_2.t28 G3_2.t29 VSS.t20 nfet_03v3 ad=0.156p pd=1.12u as=0.156p ps=1.12u w=0.6u l=0.5u
X240 VSS G3_1.t2 G3_1.t3 VSS.t11 nfet_03v3 ad=0.156p pd=1.12u as=0.156p ps=1.12u w=0.6u l=0.5u
X241 VDD G1_2.t139 SD2_0.t10 VDD.t34 pfet_03v3 ad=0.156p pd=1.12u as=0.156p ps=1.12u w=0.6u l=0.5u
X242 VDD G1_2.t140 SD2_0.t9 VDD.t12 pfet_03v3 ad=0.156p pd=1.12u as=0.156p ps=1.12u w=0.6u l=0.5u
X243 G3_2 G1_1.t143 SD2_0.t53 VDD.t8 pfet_03v3 ad=0.156p pd=1.12u as=0.156p ps=1.12u w=0.6u l=0.5u
X244 VDD G1_2.t141 SD2_0.t8 VDD.t11 pfet_03v3 ad=0.264p pd=2.08u as=0.156p ps=1.12u w=0.6u l=0.5u
X245 VDD G1_2.t142 SD2_0.t7 VDD.t28 pfet_03v3 ad=0.156p pd=1.12u as=0.156p ps=1.12u w=0.6u l=0.5u
X246 G1_2 G1_1.t34 G1_1.t35 VDD.t20 pfet_03v3 ad=0.156p pd=1.12u as=0.156p ps=1.12u w=0.6u l=0.5u
X247 G1_2 G1_2.t73 VDD.t27 VDD.t26 pfet_03v3 ad=0.156p pd=1.12u as=0.156p ps=1.12u w=0.6u l=0.5u
X248 G1_2 G1_1.t32 G1_1.t33 VDD.t21 pfet_03v3 ad=0.156p pd=1.12u as=0.156p ps=1.12u w=0.6u l=0.5u
X249 G1_1 G0_2.t31 SD0_1.t0 VSS.t125 nfet_03v3 ad=0.156p pd=1.12u as=0.156p ps=1.12u w=0.6u l=0.5u
X250 VSS G0_1.t29 SD0_1.t41 VSS.t108 nfet_03v3 ad=0.156p pd=1.12u as=0.156p ps=1.12u w=0.6u l=0.5u
X251 SD0_1 G0_1.t30 VSS.t112 VSS.t111 nfet_03v3 ad=0.156p pd=1.12u as=0.156p ps=1.12u w=0.6u l=0.5u
X252 VSS G3_1.t0 G3_1.t1 VSS.t8 nfet_03v3 ad=0.156p pd=1.12u as=0.156p ps=1.12u w=0.6u l=0.5u
X253 VSS G0_1.t31 SD0_1.t55 VSS.t143 nfet_03v3 ad=0.156p pd=1.12u as=0.156p ps=1.12u w=0.6u l=0.5u
X254 G3_2 G3_2.t80 G3_1.t64 VSS.t17 nfet_03v3 ad=0.156p pd=1.12u as=0.156p ps=1.12u w=0.6u l=0.5u
X255 VDD G1_2.t17 G1_2.t18 VDD.t2 pfet_03v3 ad=0.156p pd=1.12u as=0.156p ps=1.12u w=0.6u l=0.5u
R0 G3_2.n117 G3_2.n116 107.18
R1 G3_2.n96 G3_2.n95 107.18
R2 G3_2.n125 G3_2.n124 103.823
R3 G3_2.n123 G3_2.n122 103.823
R4 G3_2.n121 G3_2.n120 103.823
R5 G3_2.n119 G3_2.n118 103.823
R6 G3_2.n136 G3_2.n47 103.823
R7 G3_2.n135 G3_2.n134 103.823
R8 G3_2.n24 G3_2.n23 103.823
R9 G3_2.n29 G3_2.n28 103.823
R10 G3_2.n34 G3_2.n33 103.823
R11 G3_2.n39 G3_2.n38 103.823
R12 G3_2.n40 G3_2.n2 103.823
R13 G3_2.n149 G3_2.n148 103.823
R14 G3_2.n154 G3_2.n153 103.823
R15 G3_2.n23 G3_2.n22 23.4254
R16 G3_2.n155 G3_2.n154 23.2794
R17 G3_2.n124 G3_2.n123 21.0894
R18 G3_2.n122 G3_2.n121 21.0894
R19 G3_2.n120 G3_2.n119 21.0894
R20 G3_2.n118 G3_2.n117 21.0894
R21 G3_2.n95 G3_2.n47 21.0894
R22 G3_2.n136 G3_2.n135 21.0894
R23 G3_2.n134 G3_2.n125 21.0894
R24 G3_2.n28 G3_2.n24 21.0894
R25 G3_2.n33 G3_2.n29 21.0894
R26 G3_2.n38 G3_2.n34 21.0894
R27 G3_2.n148 G3_2.n2 21.0894
R28 G3_2.n40 G3_2.n39 21.0894
R29 G3_2.n153 G3_2.n149 21.0894
R30 G3_2.n125 G3_2.t32 14.0895
R31 G3_2.n123 G3_2.t52 14.0895
R32 G3_2.n121 G3_2.t56 14.0895
R33 G3_2.n119 G3_2.t44 14.0895
R34 G3_2.n117 G3_2.t30 14.0895
R35 G3_2.n47 G3_2.t42 14.0895
R36 G3_2.n135 G3_2.t28 14.0895
R37 G3_2.n23 G3_2.t64 12.7025
R38 G3_2.n24 G3_2.t38 12.7025
R39 G3_2.n29 G3_2.t58 12.7025
R40 G3_2.n34 G3_2.t40 12.7025
R41 G3_2.n39 G3_2.t34 12.7025
R42 G3_2.n2 G3_2.t46 12.7025
R43 G3_2.n149 G3_2.t36 12.7025
R44 G3_2.n154 G3_2.t50 12.7025
R45 G3_2.n50 G3_2.t82 10.7315
R46 G3_2.n53 G3_2.t76 10.7315
R47 G3_2.n56 G3_2.t60 10.7315
R48 G3_2.n59 G3_2.t26 10.7315
R49 G3_2.n116 G3_2.t70 10.7315
R50 G3_2.n96 G3_2.t54 10.7315
R51 G3_2.n94 G3_2.t80 10.7315
R52 G3_2.n22 G3_2.t48 10.3665
R53 G3_2.n27 G3_2.t74 10.3665
R54 G3_2.n32 G3_2.t62 10.3665
R55 G3_2.n37 G3_2.t68 10.3665
R56 G3_2.n152 G3_2.t72 10.3665
R57 G3_2.n156 G3_2.t66 10.3665
R58 G3_2.n142 G3_2.t24 9.7761
R59 G3_2.n130 G3_2.t78 8.1765
R60 G3_2.n8 G3_2.t84 8.1765
R61 G3_2.n148 G3_2.n147 8.17038
R62 G3_2.n42 G3_2.n41 8.02202
R63 G3_2.n8 G3_2.n7 8.01152
R64 G3_2.n6 G3_2.n3 8.008
R65 G3_2.n141 G3_2.n140 8.0005
R66 G3_2.n130 G3_2.n126 8.0005
R67 G3_2.n132 G3_2.n129 8.0005
R68 G3_2.n12 G3_2.n11 8.0005
R69 G3_2.n17 G3_2.n13 8.0005
R70 G3_2.n19 G3_2.n18 8.0005
R71 G3_2.n10 G3_2.n9 8.0005
R72 G3_2.n12 G3_2.t86 7.8845
R73 G3_2.n53 G3_2.n52 7.59736
R74 G3_2.n50 G3_2.n49 7.58813
R75 G3_2.n59 G3_2.n58 7.50659
R76 G3_2.n94 G3_2.n93 7.50659
R77 G3_2.n56 G3_2.n55 7.50213
R78 G3_2.n32 G3_2.n31 7.49478
R79 G3_2.n22 G3_2.n21 7.49191
R80 G3_2.n152 G3_2.n151 7.49008
R81 G3_2.n27 G3_2.n26 7.48719
R82 G3_2.n37 G3_2.n36 7.47354
R83 G3_2.n114 G3_2.n61 6.0756
R84 G3_2.n98 G3_2.t11 6.0756
R85 G3_2.n115 G3_2.n60 6.03311
R86 G3_2.n97 G3_2.t55 6.01354
R87 G3_2.n97 G3_2.n96 4.09218
R88 G3_2.n116 G3_2.n115 4.07208
R89 G3_2.n157 G3_2.n156 4.0005
R90 G3_2.n140 G3_2.n139 3.56662
R91 G3_2.n133 G3_2.n126 3.54789
R92 G3_2.n137 G3_2.n46 3.51501
R93 G3_2.n157 G3_2.n1 3.49193
R94 G3_2.n6 G3_2.n5 3.48507
R95 G3_2.n16 G3_2.n15 3.48115
R96 G3_2.n129 G3_2.n128 3.47959
R97 G3_2.n124 G3_2.n50 3.3585
R98 G3_2.n122 G3_2.n53 3.3585
R99 G3_2.n120 G3_2.n56 3.3585
R100 G3_2.n118 G3_2.n59 3.3585
R101 G3_2.n95 G3_2.n94 3.3585
R102 G3_2.n63 G3_2.t4 3.03383
R103 G3_2.n63 G3_2.n62 3.03383
R104 G3_2.n67 G3_2.t9 3.03383
R105 G3_2.n67 G3_2.n66 3.03383
R106 G3_2.n71 G3_2.t88 3.03383
R107 G3_2.n71 G3_2.n70 3.03383
R108 G3_2.n75 G3_2.t19 3.03383
R109 G3_2.n75 G3_2.n74 3.03383
R110 G3_2.n79 G3_2.t92 3.03383
R111 G3_2.n79 G3_2.n78 3.03383
R112 G3_2.n83 G3_2.t17 3.03383
R113 G3_2.n83 G3_2.n82 3.03383
R114 G3_2.n87 G3_2.t10 3.03383
R115 G3_2.n87 G3_2.n86 3.03383
R116 G3_2.n91 G3_2.t3 3.03383
R117 G3_2.n91 G3_2.n90 3.03383
R118 G3_2.n89 G3_2.t5 3.03383
R119 G3_2.n89 G3_2.n88 3.03383
R120 G3_2.n85 G3_2.t13 3.03383
R121 G3_2.n85 G3_2.n84 3.03383
R122 G3_2.n81 G3_2.t18 3.03383
R123 G3_2.n81 G3_2.n80 3.03383
R124 G3_2.n77 G3_2.t14 3.03383
R125 G3_2.n77 G3_2.n76 3.03383
R126 G3_2.n73 G3_2.t8 3.03383
R127 G3_2.n73 G3_2.n72 3.03383
R128 G3_2.n69 G3_2.t89 3.03383
R129 G3_2.n69 G3_2.n68 3.03383
R130 G3_2.n65 G3_2.t12 3.03383
R131 G3_2.n65 G3_2.n64 3.03383
R132 G3_2.n113 G3_2.n63 3.00941
R133 G3_2.n111 G3_2.n67 3.00941
R134 G3_2.n109 G3_2.n71 3.00941
R135 G3_2.n107 G3_2.n75 3.00941
R136 G3_2.n105 G3_2.n79 3.00941
R137 G3_2.n103 G3_2.n83 3.00941
R138 G3_2.n101 G3_2.n87 3.00941
R139 G3_2.n99 G3_2.n91 3.00941
R140 G3_2.n100 G3_2.n89 2.99767
R141 G3_2.n102 G3_2.n85 2.99767
R142 G3_2.n104 G3_2.n81 2.99767
R143 G3_2.n106 G3_2.n77 2.99767
R144 G3_2.n108 G3_2.n73 2.99767
R145 G3_2.n110 G3_2.n69 2.99767
R146 G3_2.n112 G3_2.n65 2.99767
R147 G3_2.n132 G3_2.n131 2.88412
R148 G3_2.n144 G3_2.n143 2.88107
R149 G3_2.n43 G3_2.n13 2.8805
R150 G3_2.n146 G3_2.n3 2.8805
R151 G3_2.n1 G3_2.t51 2.7305
R152 G3_2.n1 G3_2.n0 2.7305
R153 G3_2.n49 G3_2.t53 2.7305
R154 G3_2.n49 G3_2.n48 2.7305
R155 G3_2.n52 G3_2.t57 2.7305
R156 G3_2.n52 G3_2.n51 2.7305
R157 G3_2.n55 G3_2.t45 2.7305
R158 G3_2.n55 G3_2.n54 2.7305