* NGSPICE file created from MSB_Unit_Cell_flat.ext - technology: gf180mcuC

.subckt pex_MSB_Unit_Cell IOUT+ IOUT- VDD Ri-1 Ci Ri IM_T IM VSS 
X0 IOUT- Local_Enc_0.QB.t3 CM_MSB_V2_0.OUT.t66 VSS.t53 nfet_03v3 ad=0.156p pd=1.12u as=0.156p ps=1.12u w=0.6u l=0.5u
X1 CM_MSB_V2_0.OUT IM_T.t0 CM_MSB_V2_0.SD.t32 VSS.t39 nfet_03v3 ad=0.312p pd=1.72u as=0.312p ps=1.72u w=1.2u l=0.5u
X2 IOUT+ Local_Enc_0.Q.t3 CM_MSB_V2_0.OUT.t150 VSS.t52 nfet_03v3 ad=0.156p pd=1.12u as=0.156p ps=1.12u w=0.6u l=0.5u
X3 VSS IM.t0 CM_MSB_V2_0.SD.t0 VSS.t13 nfet_03v3 ad=0.312p pd=1.72u as=0.312p ps=1.72u w=1.2u l=0.5u
X4 Local_Enc_0.NAND_5.A Local_Enc_0.NAND_6.B VDD.t27 VDD.t26 pfet_03v3 ad=0.13p pd=1.02u as=0.22p ps=1.88u w=0.5u l=0.28u
X5 IOUT- Local_Enc_0.QB.t4 CM_MSB_V2_0.OUT.t65 VSS.t55 nfet_03v3 ad=0.156p pd=1.12u as=0.156p ps=1.12u w=0.6u l=0.5u
X6 IOUT+ Local_Enc_0.Q.t4 CM_MSB_V2_0.OUT.t151 VSS.t50 nfet_03v3 ad=0.156p pd=1.12u as=0.156p ps=1.12u w=0.6u l=0.5u
X7 CM_MSB_V2_0.OUT Local_Enc_0.Q.t5 IOUT+.t61 VSS.t44 nfet_03v3 ad=0.156p pd=1.12u as=0.156p ps=1.12u w=0.6u l=0.5u
X8 IOUT- Local_Enc_0.QB.t5 CM_MSB_V2_0.OUT.t64 VSS.t52 nfet_03v3 ad=0.156p pd=1.12u as=0.156p ps=1.12u w=0.6u l=0.5u
X9 IOUT+ Local_Enc_0.Q.t6 CM_MSB_V2_0.OUT.t123 VSS.t47 nfet_03v3 ad=0.156p pd=1.12u as=0.156p ps=1.12u w=0.6u l=0.5u
X10 IOUT+ Local_Enc_0.Q.t7 CM_MSB_V2_0.OUT.t86 VSS.t55 nfet_03v3 ad=0.156p pd=1.12u as=0.156p ps=1.12u w=0.6u l=0.5u
X11 CM_MSB_V2_0.SD IM_T.t1 CM_MSB_V2_0.OUT.t85 VSS.t58 nfet_03v3 ad=0.312p pd=1.72u as=0.312p ps=1.72u w=1.2u l=0.5u
X12 IOUT+ Local_Enc_0.Q.t8 CM_MSB_V2_0.OUT.t87 VSS.t48 nfet_03v3 ad=0.156p pd=1.12u as=0.156p ps=1.12u w=0.6u l=0.5u
X13 CM_MSB_V2_0.SD IM_T.t2 CM_MSB_V2_0.OUT.t0 VSS.t4 nfet_03v3 ad=0.312p pd=1.72u as=0.312p ps=1.72u w=1.2u l=0.5u
X14 IOUT- Local_Enc_0.QB.t6 CM_MSB_V2_0.OUT.t63 VSS.t49 nfet_03v3 ad=0.156p pd=1.12u as=0.156p ps=1.12u w=0.6u l=0.5u
X15 CM_MSB_V2_0.OUT Local_Enc_0.QB.t7 IOUT-.t59 VSS.t51 nfet_03v3 ad=0.156p pd=1.12u as=0.264p ps=2.08u w=0.6u l=0.5u
X16 IOUT- Local_Enc_0.QB.t8 CM_MSB_V2_0.OUT.t62 VSS.t48 nfet_03v3 ad=0.156p pd=1.12u as=0.156p ps=1.12u w=0.6u l=0.5u
X17 CM_MSB_V2_0.OUT Local_Enc_0.QB.t9 IOUT-.t57 VSS.t41 nfet_03v3 ad=0.156p pd=1.12u as=0.156p ps=1.12u w=0.6u l=0.5u
X18 CM_MSB_V2_0.OUT Local_Enc_0.Q.t9 IOUT+.t57 VSS.t45 nfet_03v3 ad=0.156p pd=1.12u as=0.156p ps=1.12u w=0.6u l=0.5u
X19 CM_MSB_V2_0.SD IM_T.t3 CM_MSB_V2_0.OUT.t3 VSS.t9 nfet_03v3 ad=0.312p pd=1.72u as=0.312p ps=1.72u w=1.2u l=0.5u
X20 CM_MSB_V2_0.OUT Local_Enc_0.Q.t10 IOUT+.t56 VSS.t51 nfet_03v3 ad=0.156p pd=1.12u as=0.264p ps=2.08u w=0.6u l=0.5u
X21 CM_MSB_V2_0.OUT Local_Enc_0.Q.t11 IOUT+.t55 VSS.t54 nfet_03v3 ad=0.156p pd=1.12u as=0.156p ps=1.12u w=0.6u l=0.5u
X22 CM_MSB_V2_0.OUT Local_Enc_0.Q.t12 IOUT+.t54 VSS.t43 nfet_03v3 ad=0.156p pd=1.12u as=0.156p ps=1.12u w=0.6u l=0.5u
X23 IOUT+ Local_Enc_0.Q.t13 CM_MSB_V2_0.OUT.t129 VSS.t49 nfet_03v3 ad=0.156p pd=1.12u as=0.156p ps=1.12u w=0.6u l=0.5u
X24 IOUT+ Local_Enc_0.Q.t14 CM_MSB_V2_0.OUT.t130 VSS.t40 nfet_03v3 ad=0.264p pd=2.08u as=0.156p ps=1.12u w=0.6u l=0.5u
X25 CM_MSB_V2_0.OUT Local_Enc_0.Q.t15 IOUT+.t51 VSS.t46 nfet_03v3 ad=0.156p pd=1.12u as=0.156p ps=1.12u w=0.6u l=0.5u
X26 CM_MSB_V2_0.OUT Local_Enc_0.QB.t10 IOUT-.t56 VSS.t45 nfet_03v3 ad=0.156p pd=1.12u as=0.156p ps=1.12u w=0.6u l=0.5u
X27 CM_MSB_V2_0.OUT Local_Enc_0.QB.t11 IOUT-.t55 VSS.t43 nfet_03v3 ad=0.156p pd=1.12u as=0.156p ps=1.12u w=0.6u l=0.5u
X28 IOUT- Local_Enc_0.QB.t12 CM_MSB_V2_0.OUT.t61 VSS.t53 nfet_03v3 ad=0.156p pd=1.12u as=0.156p ps=1.12u w=0.6u l=0.5u
X29 CM_MSB_V2_0.OUT IM_T.t4 CM_MSB_V2_0.SD.t28 VSS.t35 nfet_03v3 ad=0.312p pd=1.72u as=0.312p ps=1.72u w=1.2u l=0.5u
X30 CM_MSB_V2_0.OUT Local_Enc_0.Q.t16 IOUT+.t50 VSS.t42 nfet_03v3 ad=0.156p pd=1.12u as=0.156p ps=1.12u w=0.6u l=0.5u
X31 CM_MSB_V2_0.OUT IM_T.t5 CM_MSB_V2_0.SD.t27 VSS.t21 nfet_03v3 ad=0.312p pd=1.72u as=0.312p ps=1.72u w=1.2u l=0.5u
X32 IOUT+ Local_Enc_0.Q.t17 CM_MSB_V2_0.OUT.t88 VSS.t50 nfet_03v3 ad=0.156p pd=1.12u as=0.156p ps=1.12u w=0.6u l=0.5u
X33 CM_MSB_V2_0.OUT Local_Enc_0.Q.t18 IOUT+.t48 VSS.t44 nfet_03v3 ad=0.156p pd=1.12u as=0.156p ps=1.12u w=0.6u l=0.5u
X34 VSS IM.t1 CM_MSB_V2_0.SD.t33 VSS.t6 nfet_03v3 ad=0.312p pd=1.72u as=0.312p ps=1.72u w=1.2u l=0.5u
X35 CM_MSB_V2_0.SD IM_T.t6 CM_MSB_V2_0.OUT.t8 VSS.t14 nfet_03v3 ad=0.312p pd=1.72u as=0.312p ps=1.72u w=1.2u l=0.5u
X36 IOUT+ Local_Enc_0.Q.t19 CM_MSB_V2_0.OUT.t120 VSS.t47 nfet_03v3 ad=0.156p pd=1.12u as=0.156p ps=1.12u w=0.6u l=0.5u
X37 CM_MSB_V2_0.OUT Local_Enc_0.QB.t13 IOUT-.t53 VSS.t42 nfet_03v3 ad=0.156p pd=1.12u as=0.156p ps=1.12u w=0.6u l=0.5u
X38 Local_Enc_0.Q Local_Enc_0.NAND_8.A a_n1035_4741# VSS.t3 nfet_03v3 ad=0.22p pd=1.88u as=0.13p ps=1.02u w=0.5u l=0.28u
X39 CM_MSB_V2_0.OUT Local_Enc_0.Q.t20 IOUT+.t46 VSS.t41 nfet_03v3 ad=0.156p pd=1.12u as=0.156p ps=1.12u w=0.6u l=0.5u
X40 CM_MSB_V2_0.SD IM_T.t7 CM_MSB_V2_0.OUT.t16 VSS.t29 nfet_03v3 ad=0.312p pd=1.72u as=0.312p ps=1.72u w=1.2u l=0.5u
X41 CM_MSB_V2_0.OUT IM_T.t8 CM_MSB_V2_0.SD.t24 VSS.t18 nfet_03v3 ad=0.312p pd=1.72u as=0.312p ps=1.72u w=1.2u l=0.5u
X42 IOUT+ Local_Enc_0.Q.t21 CM_MSB_V2_0.OUT.t116 VSS.t40 nfet_03v3 ad=0.264p pd=2.08u as=0.156p ps=1.12u w=0.6u l=0.5u
X43 a_n1035_4741# Local_Enc_0.QB.t14 VSS.t57 VSS.t56 nfet_03v3 ad=0.13p pd=1.02u as=0.22p ps=1.88u w=0.5u l=0.28u
X44 IOUT+ Local_Enc_0.Q.t22 CM_MSB_V2_0.OUT.t117 VSS.t52 nfet_03v3 ad=0.156p pd=1.12u as=0.156p ps=1.12u w=0.6u l=0.5u
X45 CM_MSB_V2_0.OUT Local_Enc_0.QB.t15 IOUT-.t52 VSS.t54 nfet_03v3 ad=0.156p pd=1.12u as=0.156p ps=1.12u w=0.6u l=0.5u
X46 CM_MSB_V2_0.SD IM_T.t9 CM_MSB_V2_0.OUT.t103 VSS.t63 nfet_03v3 ad=0.312p pd=1.72u as=0.312p ps=1.72u w=1.2u l=0.5u
X47 CM_MSB_V2_0.SD IM_T.t10 CM_MSB_V2_0.OUT.t102 VSS.t62 nfet_03v3 ad=0.312p pd=1.72u as=0.312p ps=1.72u w=1.2u l=0.5u
X48 VSS IM.t2 CM_MSB_V2_0.SD.t62 VSS.t119 nfet_03v3 ad=0.312p pd=1.72u as=0.312p ps=1.72u w=1.2u l=0.5u
X49 Local_Enc_0.NAND_8.A Local_Enc_0.NAND_5.B VDD.t36 VDD.t35 pfet_03v3 ad=0.13p pd=1.02u as=0.22p ps=1.88u w=0.5u l=0.28u
X50 IOUT- Local_Enc_0.QB.t16 CM_MSB_V2_0.OUT.t60 VSS.t55 nfet_03v3 ad=0.156p pd=1.12u as=0.156p ps=1.12u w=0.6u l=0.5u
X51 a_n1846_3765# Local_Enc_0.NAND_6.B VSS.t38 VSS.t37 nfet_03v3 ad=0.13p pd=1.02u as=0.22p ps=1.88u w=0.5u l=0.28u
X52 IOUT+ Local_Enc_0.Q.t23 CM_MSB_V2_0.OUT.t132 VSS.t53 nfet_03v3 ad=0.156p pd=1.12u as=0.156p ps=1.12u w=0.6u l=0.5u
X53 CM_MSB_V2_0.SD IM.t3 VSS.t122 VSS.t20 nfet_03v3 ad=0.312p pd=1.72u as=0.312p ps=1.72u w=1.2u l=0.5u
X54 IOUT+ Local_Enc_0.Q.t24 CM_MSB_V2_0.OUT.t133 VSS.t48 nfet_03v3 ad=0.156p pd=1.12u as=0.156p ps=1.12u w=0.6u l=0.5u
X55 IOUT+ Local_Enc_0.Q.t25 CM_MSB_V2_0.OUT.t104 VSS.t55 nfet_03v3 ad=0.156p pd=1.12u as=0.156p ps=1.12u w=0.6u l=0.5u
X56 CM_MSB_V2_0.OUT Local_Enc_0.QB.t17 IOUT-.t50 VSS.t51 nfet_03v3 ad=0.156p pd=1.12u as=0.264p ps=2.08u w=0.6u l=0.5u
X57 IOUT- Local_Enc_0.QB.t18 CM_MSB_V2_0.OUT.t59 VSS.t50 nfet_03v3 ad=0.156p pd=1.12u as=0.156p ps=1.12u w=0.6u l=0.5u
X58 IOUT- Local_Enc_0.QB.t19 CM_MSB_V2_0.OUT.t58 VSS.t49 nfet_03v3 ad=0.156p pd=1.12u as=0.156p ps=1.12u w=0.6u l=0.5u
X59 CM_MSB_V2_0.SD IM.t4 VSS.t69 VSS.t68 nfet_03v3 ad=0.312p pd=1.72u as=0.312p ps=1.72u w=1.2u l=0.5u
X60 CM_MSB_V2_0.OUT Local_Enc_0.QB.t20 IOUT-.t47 VSS.t46 nfet_03v3 ad=0.156p pd=1.12u as=0.156p ps=1.12u w=0.6u l=0.5u
X61 IOUT- Local_Enc_0.QB.t21 CM_MSB_V2_0.OUT.t57 VSS.t47 nfet_03v3 ad=0.156p pd=1.12u as=0.156p ps=1.12u w=0.6u l=0.5u
X62 CM_MSB_V2_0.SD IM.t5 VSS.t70 VSS.t10 nfet_03v3 ad=0.312p pd=1.72u as=0.312p ps=1.72u w=1.2u l=0.5u
X63 CM_MSB_V2_0.OUT Local_Enc_0.Q.t26 IOUT+.t40 VSS.t45 nfet_03v3 ad=0.156p pd=1.12u as=0.156p ps=1.12u w=0.6u l=0.5u
X64 VDD Local_Enc_0.NAND_6.A Local_Enc_0.NAND_5.A VDD.t21 pfet_03v3 ad=0.22p pd=1.88u as=0.13p ps=1.02u w=0.5u l=0.28u
X65 Local_Enc_0.NAND_6.B Ci.t0 VDD.t20 VDD.t19 pfet_03v3 ad=0.13p pd=1.02u as=0.22p ps=1.88u w=0.5u l=0.28u
X66 VSS IM.t6 CM_MSB_V2_0.SD.t40 VSS.t11 nfet_03v3 ad=0.312p pd=1.72u as=0.312p ps=1.72u w=1.2u l=0.5u
X67 CM_MSB_V2_0.OUT Local_Enc_0.Q.t27 IOUT+.t39 VSS.t43 nfet_03v3 ad=0.156p pd=1.12u as=0.156p ps=1.12u w=0.6u l=0.5u
X68 CM_MSB_V2_0.OUT Local_Enc_0.Q.t28 IOUT+.t38 VSS.t46 nfet_03v3 ad=0.156p pd=1.12u as=0.156p ps=1.12u w=0.6u l=0.5u
X69 CM_MSB_V2_0.OUT IM_T.t11 CM_MSB_V2_0.SD.t21 VSS.t103 nfet_03v3 ad=0.312p pd=1.72u as=0.312p ps=1.72u w=1.2u l=0.5u
X70 CM_MSB_V2_0.SD IM.t7 VSS.t82 VSS.t5 nfet_03v3 ad=0.312p pd=1.72u as=0.528p ps=3.28u w=1.2u l=0.5u
X71 CM_MSB_V2_0.OUT Local_Enc_0.Q.t29 IOUT+.t37 VSS.t41 nfet_03v3 ad=0.156p pd=1.12u as=0.156p ps=1.12u w=0.6u l=0.5u
X72 CM_MSB_V2_0.OUT Local_Enc_0.QB.t22 IOUT-.t45 VSS.t45 nfet_03v3 ad=0.156p pd=1.12u as=0.156p ps=1.12u w=0.6u l=0.5u
X73 CM_MSB_V2_0.OUT Local_Enc_0.QB.t23 IOUT-.t44 VSS.t44 nfet_03v3 ad=0.156p pd=1.12u as=0.156p ps=1.12u w=0.6u l=0.5u
X74 IOUT+ Local_Enc_0.Q.t30 CM_MSB_V2_0.OUT.t140 VSS.t52 nfet_03v3 ad=0.156p pd=1.12u as=0.156p ps=1.12u w=0.6u l=0.5u
X75 CM_MSB_V2_0.OUT Local_Enc_0.QB.t24 IOUT-.t43 VSS.t54 nfet_03v3 ad=0.156p pd=1.12u as=0.156p ps=1.12u w=0.6u l=0.5u
X76 CM_MSB_V2_0.OUT Local_Enc_0.QB.t25 IOUT-.t42 VSS.t43 nfet_03v3 ad=0.156p pd=1.12u as=0.156p ps=1.12u w=0.6u l=0.5u
X77 VDD Ci.t1 Local_Enc_0.NAND_6.B VDD.t28 pfet_03v3 ad=0.22p pd=1.88u as=0.13p ps=1.02u w=0.5u l=0.28u
X78 CM_MSB_V2_0.OUT Local_Enc_0.Q.t31 IOUT+.t35 VSS.t42 nfet_03v3 ad=0.156p pd=1.12u as=0.156p ps=1.12u w=0.6u l=0.5u
X79 CM_MSB_V2_0.OUT Local_Enc_0.Q.t32 IOUT+.t34 VSS.t44 nfet_03v3 ad=0.156p pd=1.12u as=0.156p ps=1.12u w=0.6u l=0.5u
X80 VSS IM.t8 CM_MSB_V2_0.SD.t60 VSS.t113 nfet_03v3 ad=0.528p pd=3.28u as=0.312p ps=1.72u w=1.2u l=0.5u
X81 IOUT+ Local_Enc_0.Q.t33 CM_MSB_V2_0.OUT.t96 VSS.t53 nfet_03v3 ad=0.156p pd=1.12u as=0.156p ps=1.12u w=0.6u l=0.5u
X82 VSS IM.t9 CM_MSB_V2_0.SD.t61 VSS.t116 nfet_03v3 ad=0.312p pd=1.72u as=0.312p ps=1.72u w=1.2u l=0.5u
X83 IOUT+ Local_Enc_0.Q.t34 CM_MSB_V2_0.OUT.t97 VSS.t48 nfet_03v3 ad=0.156p pd=1.12u as=0.156p ps=1.12u w=0.6u l=0.5u
X84 CM_MSB_V2_0.OUT IM_T.t12 CM_MSB_V2_0.SD.t20 VSS.t73 nfet_03v3 ad=0.312p pd=1.72u as=0.312p ps=1.72u w=1.2u l=0.5u
X85 CM_MSB_V2_0.SD IM_T.t13 CM_MSB_V2_0.OUT.t6 VSS.t12 nfet_03v3 ad=0.312p pd=1.72u as=0.312p ps=1.72u w=1.2u l=0.5u
X86 CM_MSB_V2_0.OUT Local_Enc_0.QB.t26 IOUT-.t41 VSS.t51 nfet_03v3 ad=0.156p pd=1.12u as=0.264p ps=2.08u w=0.6u l=0.5u
X87 IOUT- Local_Enc_0.QB.t27 CM_MSB_V2_0.OUT.t56 VSS.t50 nfet_03v3 ad=0.156p pd=1.12u as=0.156p ps=1.12u w=0.6u l=0.5u
X88 IOUT- Local_Enc_0.QB.t28 CM_MSB_V2_0.OUT.t55 VSS.t49 nfet_03v3 ad=0.156p pd=1.12u as=0.156p ps=1.12u w=0.6u l=0.5u
X89 IOUT- Local_Enc_0.QB.t29 CM_MSB_V2_0.OUT.t54 VSS.t40 nfet_03v3 ad=0.264p pd=2.08u as=0.156p ps=1.12u w=0.6u l=0.5u
X90 VSS IM.t10 CM_MSB_V2_0.SD.t52 VSS.t39 nfet_03v3 ad=0.312p pd=1.72u as=0.312p ps=1.72u w=1.2u l=0.5u
X91 IOUT- Local_Enc_0.QB.t30 CM_MSB_V2_0.OUT.t53 VSS.t47 nfet_03v3 ad=0.156p pd=1.12u as=0.156p ps=1.12u w=0.6u l=0.5u
X92 CM_MSB_V2_0.OUT IM_T.t14 CM_MSB_V2_0.SD.t18 VSS.t13 nfet_03v3 ad=0.312p pd=1.72u as=0.312p ps=1.72u w=1.2u l=0.5u
X93 IOUT+ Local_Enc_0.Q.t35 CM_MSB_V2_0.OUT.t131 VSS.t40 nfet_03v3 ad=0.264p pd=2.08u as=0.156p ps=1.12u w=0.6u l=0.5u
X94 VDD Local_Enc_0.Q.t36 Local_Enc_0.QB.t1 VDD.t42 pfet_03v3 ad=0.22p pd=1.88u as=0.13p ps=1.02u w=0.5u l=0.28u
X95 Local_Enc_0.QB Local_Enc_0.Q.t37 a_n1035_5712# VSS.t86 nfet_03v3 ad=0.22p pd=1.88u as=0.13p ps=1.02u w=0.5u l=0.28u
X96 Local_Enc_0.NAND_6.A Ri.t0 VDD.t41 VDD.t40 pfet_03v3 ad=0.13p pd=1.02u as=0.22p ps=1.88u w=0.5u l=0.28u
X97 a_n1035_5712# Local_Enc_0.NAND_4.B VSS.t65 VSS.t64 nfet_03v3 ad=0.13p pd=1.02u as=0.22p ps=1.88u w=0.5u l=0.28u
X98 CM_MSB_V2_0.SD IM.t11 VSS.t102 VSS.t58 nfet_03v3 ad=0.312p pd=1.72u as=0.312p ps=1.72u w=1.2u l=0.5u
X99 Local_Enc_0.QB Local_Enc_0.NAND_4.B VDD.t34 VDD.t33 pfet_03v3 ad=0.13p pd=1.02u as=0.22p ps=1.88u w=0.5u l=0.28u
X100 IOUT- Local_Enc_0.QB.t31 CM_MSB_V2_0.OUT.t52 VSS.t55 nfet_03v3 ad=0.156p pd=1.12u as=0.156p ps=1.12u w=0.6u l=0.5u
X101 CM_MSB_V2_0.SD IM.t12 VSS.t111 VSS.t4 nfet_03v3 ad=0.312p pd=1.72u as=0.312p ps=1.72u w=1.2u l=0.5u
X102 a_n1846_4741# Local_Enc_0.NAND_5.B VSS.t72 VSS.t71 nfet_03v3 ad=0.13p pd=1.02u as=0.22p ps=1.88u w=0.5u l=0.28u
X103 IOUT- Local_Enc_0.QB.t32 CM_MSB_V2_0.OUT.t51 VSS.t52 nfet_03v3 ad=0.156p pd=1.12u as=0.156p ps=1.12u w=0.6u l=0.5u
X104 VDD Ri.t1 Local_Enc_0.NAND_6.A VDD.t37 pfet_03v3 ad=0.22p pd=1.88u as=0.13p ps=1.02u w=0.5u l=0.28u
X105 CM_MSB_V2_0.OUT Local_Enc_0.Q.t38 IOUT+.t30 VSS.t42 nfet_03v3 ad=0.156p pd=1.12u as=0.156p ps=1.12u w=0.6u l=0.5u
X106 CM_MSB_V2_0.SD IM.t13 VSS.t112 VSS.t9 nfet_03v3 ad=0.312p pd=1.72u as=0.312p ps=1.72u w=1.2u l=0.5u
X107 CM_MSB_V2_0.SD IM_T.t15 CM_MSB_V2_0.OUT.t10 VSS.t16 nfet_03v3 ad=0.312p pd=1.72u as=0.312p ps=1.72u w=1.2u l=0.5u
X108 VSS IM.t14 CM_MSB_V2_0.SD.t51 VSS.t97 nfet_03v3 ad=0.312p pd=1.72u as=0.312p ps=1.72u w=1.2u l=0.5u
X109 IOUT- Local_Enc_0.QB.t33 CM_MSB_V2_0.OUT.t50 VSS.t48 nfet_03v3 ad=0.156p pd=1.12u as=0.156p ps=1.12u w=0.6u l=0.5u
X110 CM_MSB_V2_0.OUT Local_Enc_0.QB.t34 IOUT-.t33 VSS.t41 nfet_03v3 ad=0.156p pd=1.12u as=0.156p ps=1.12u w=0.6u l=0.5u
X111 CM_MSB_V2_0.OUT Local_Enc_0.Q.t39 IOUT+.t29 VSS.t45 nfet_03v3 ad=0.156p pd=1.12u as=0.156p ps=1.12u w=0.6u l=0.5u
X112 CM_MSB_V2_0.SD IM_T.t16 CM_MSB_V2_0.OUT.t11 VSS.t17 nfet_03v3 ad=0.312p pd=1.72u as=0.312p ps=1.72u w=1.2u l=0.5u
X113 CM_MSB_V2_0.OUT Local_Enc_0.QB.t35 IOUT-.t32 VSS.t46 nfet_03v3 ad=0.156p pd=1.12u as=0.156p ps=1.12u w=0.6u l=0.5u
X114 VDD Local_Enc_0.NAND_5.A Local_Enc_0.NAND_8.A VDD.t11 pfet_03v3 ad=0.22p pd=1.88u as=0.13p ps=1.02u w=0.5u l=0.28u
X115 CM_MSB_V2_0.OUT Local_Enc_0.Q.t40 IOUT+.t28 VSS.t51 nfet_03v3 ad=0.156p pd=1.12u as=0.264p ps=2.08u w=0.6u l=0.5u
X116 CM_MSB_V2_0.SD IM.t15 VSS.t94 VSS.t93 nfet_03v3 ad=0.312p pd=1.72u as=0.312p ps=1.72u w=1.2u l=0.5u
X117 CM_MSB_V2_0.OUT Local_Enc_0.Q.t41 IOUT+.t27 VSS.t54 nfet_03v3 ad=0.156p pd=1.12u as=0.156p ps=1.12u w=0.6u l=0.5u
X118 CM_MSB_V2_0.OUT Local_Enc_0.Q.t42 IOUT+.t26 VSS.t43 nfet_03v3 ad=0.156p pd=1.12u as=0.156p ps=1.12u w=0.6u l=0.5u
X119 IOUT+ Local_Enc_0.Q.t43 CM_MSB_V2_0.OUT.t147 VSS.t49 nfet_03v3 ad=0.156p pd=1.12u as=0.156p ps=1.12u w=0.6u l=0.5u
X120 VSS IM.t16 CM_MSB_V2_0.SD.t50 VSS.t35 nfet_03v3 ad=0.312p pd=1.72u as=0.312p ps=1.72u w=1.2u l=0.5u
X121 CM_MSB_V2_0.OUT Local_Enc_0.Q.t44 IOUT+.t24 VSS.t41 nfet_03v3 ad=0.156p pd=1.12u as=0.156p ps=1.12u w=0.6u l=0.5u
X122 CM_MSB_V2_0.OUT Local_Enc_0.Q.t45 IOUT+.t23 VSS.t46 nfet_03v3 ad=0.156p pd=1.12u as=0.156p ps=1.12u w=0.6u l=0.5u
X123 Local_Enc_0.NAND_5.A Local_Enc_0.NAND_6.A a_n1846_3765# VSS.t36 nfet_03v3 ad=0.22p pd=1.88u as=0.13p ps=1.02u w=0.5u l=0.28u
X124 a_n2609_4741# Ci.t2 VSS.t32 VSS.t31 nfet_03v3 ad=0.13p pd=1.02u as=0.22p ps=1.88u w=0.5u l=0.28u
X125 CM_MSB_V2_0.OUT IM_T.t17 CM_MSB_V2_0.SD.t15 VSS.t33 nfet_03v3 ad=0.312p pd=1.72u as=0.312p ps=1.72u w=1.2u l=0.5u
X126 CM_MSB_V2_0.OUT Local_Enc_0.QB.t36 IOUT-.t31 VSS.t44 nfet_03v3 ad=0.156p pd=1.12u as=0.156p ps=1.12u w=0.6u l=0.5u
X127 CM_MSB_V2_0.OUT Local_Enc_0.QB.t37 IOUT-.t30 VSS.t54 nfet_03v3 ad=0.156p pd=1.12u as=0.156p ps=1.12u w=0.6u l=0.5u
X128 CM_MSB_V2_0.SD IM_T.t18 CM_MSB_V2_0.OUT.t18 VSS.t34 nfet_03v3 ad=0.312p pd=1.72u as=0.312p ps=1.72u w=1.2u l=0.5u
X129 IOUT- Local_Enc_0.QB.t38 CM_MSB_V2_0.OUT.t49 VSS.t53 nfet_03v3 ad=0.156p pd=1.12u as=0.156p ps=1.12u w=0.6u l=0.5u
X130 CM_MSB_V2_0.OUT IM_T.t19 CM_MSB_V2_0.SD.t13 VSS.t19 nfet_03v3 ad=0.312p pd=1.72u as=0.312p ps=1.72u w=1.2u l=0.5u
X131 IOUT- Local_Enc_0.QB.t39 CM_MSB_V2_0.OUT.t48 VSS.t55 nfet_03v3 ad=0.156p pd=1.12u as=0.156p ps=1.12u w=0.6u l=0.5u
X132 IOUT+ Local_Enc_0.Q.t46 CM_MSB_V2_0.OUT.t144 VSS.t50 nfet_03v3 ad=0.156p pd=1.12u as=0.156p ps=1.12u w=0.6u l=0.5u
X133 CM_MSB_V2_0.OUT Local_Enc_0.Q.t47 IOUT+.t21 VSS.t44 nfet_03v3 ad=0.156p pd=1.12u as=0.156p ps=1.12u w=0.6u l=0.5u
X134 Local_Enc_0.NAND_6.B Ci.t3 a_n2609_4741# VSS.t59 nfet_03v3 ad=0.22p pd=1.88u as=0.13p ps=1.02u w=0.5u l=0.28u
X135 VSS IM.t17 CM_MSB_V2_0.SD.t56 VSS.t15 nfet_03v3 ad=0.312p pd=1.72u as=0.312p ps=1.72u w=1.2u l=0.5u
X136 IOUT+ Local_Enc_0.Q.t48 CM_MSB_V2_0.OUT.t146 VSS.t53 nfet_03v3 ad=0.156p pd=1.12u as=0.156p ps=1.12u w=0.6u l=0.5u
X137 IOUT- Local_Enc_0.QB.t40 CM_MSB_V2_0.OUT.t47 VSS.t52 nfet_03v3 ad=0.156p pd=1.12u as=0.156p ps=1.12u w=0.6u l=0.5u
X138 IOUT+ Local_Enc_0.Q.t49 CM_MSB_V2_0.OUT.t118 VSS.t47 nfet_03v3 ad=0.156p pd=1.12u as=0.156p ps=1.12u w=0.6u l=0.5u
X139 CM_MSB_V2_0.OUT Local_Enc_0.QB.t41 IOUT-.t26 VSS.t42 nfet_03v3 ad=0.156p pd=1.12u as=0.156p ps=1.12u w=0.6u l=0.5u
X140 IOUT- Local_Enc_0.QB.t42 CM_MSB_V2_0.OUT.t46 VSS.t50 nfet_03v3 ad=0.156p pd=1.12u as=0.156p ps=1.12u w=0.6u l=0.5u
X141 IOUT- Local_Enc_0.QB.t43 CM_MSB_V2_0.OUT.t45 VSS.t40 nfet_03v3 ad=0.264p pd=2.08u as=0.156p ps=1.12u w=0.6u l=0.5u
X142 IOUT- Local_Enc_0.QB.t44 CM_MSB_V2_0.OUT.t44 VSS.t47 nfet_03v3 ad=0.156p pd=1.12u as=0.156p ps=1.12u w=0.6u l=0.5u
X143 IOUT- Local_Enc_0.QB.t45 CM_MSB_V2_0.OUT.t43 VSS.t48 nfet_03v3 ad=0.156p pd=1.12u as=0.156p ps=1.12u w=0.6u l=0.5u
X144 CM_MSB_V2_0.SD IM.t18 VSS.t110 VSS.t62 nfet_03v3 ad=0.312p pd=1.72u as=0.312p ps=1.72u w=1.2u l=0.5u
X145 CM_MSB_V2_0.OUT Local_Enc_0.Q.t50 IOUT+.t18 VSS.t45 nfet_03v3 ad=0.156p pd=1.12u as=0.156p ps=1.12u w=0.6u l=0.5u
X146 CM_MSB_V2_0.OUT Local_Enc_0.Q.t51 IOUT+.t17 VSS.t51 nfet_03v3 ad=0.156p pd=1.12u as=0.264p ps=2.08u w=0.6u l=0.5u
X147 CM_MSB_V2_0.OUT Local_Enc_0.Q.t52 IOUT+.t16 VSS.t43 nfet_03v3 ad=0.156p pd=1.12u as=0.156p ps=1.12u w=0.6u l=0.5u
X148 IOUT+ Local_Enc_0.Q.t53 CM_MSB_V2_0.OUT.t135 VSS.t49 nfet_03v3 ad=0.156p pd=1.12u as=0.156p ps=1.12u w=0.6u l=0.5u
X149 IOUT+ Local_Enc_0.Q.t54 CM_MSB_V2_0.OUT.t136 VSS.t40 nfet_03v3 ad=0.264p pd=2.08u as=0.156p ps=1.12u w=0.6u l=0.5u
X150 CM_MSB_V2_0.SD IM_T.t20 CM_MSB_V2_0.OUT.t14 VSS.t20 nfet_03v3 ad=0.312p pd=1.72u as=0.312p ps=1.72u w=1.2u l=0.5u
X151 a_n2609_3766# Ri.t2 VSS.t28 VSS.t27 nfet_03v3 ad=0.13p pd=1.02u as=0.22p ps=1.88u w=0.5u l=0.28u
X152 a_n1846_5712# Local_Enc_0.NAND_1.B VSS.t26 VSS.t25 nfet_03v3 ad=0.13p pd=1.02u as=0.22p ps=1.88u w=0.5u l=0.28u
X153 Local_Enc_0.NAND_5.B Local_Enc_0.NAND_1.B VDD.t18 VDD.t17 pfet_03v3 ad=0.13p pd=1.02u as=0.22p ps=1.88u w=0.5u l=0.28u
X154 CM_MSB_V2_0.SD IM_T.t21 CM_MSB_V2_0.OUT.t4 VSS.t10 nfet_03v3 ad=0.312p pd=1.72u as=0.312p ps=1.72u w=1.2u l=0.5u
X155 Local_Enc_0.NAND_6.A Ri.t3 a_n2609_3766# VSS.t8 nfet_03v3 ad=0.22p pd=1.88u as=0.13p ps=1.02u w=0.5u l=0.28u
X156 IOUT+ Local_Enc_0.Q.t55 CM_MSB_V2_0.OUT.t111 VSS.t55 nfet_03v3 ad=0.156p pd=1.12u as=0.156p ps=1.12u w=0.6u l=0.5u
X157 CM_MSB_V2_0.OUT IM_T.t22 CM_MSB_V2_0.SD.t10 VSS.t11 nfet_03v3 ad=0.312p pd=1.72u as=0.312p ps=1.72u w=1.2u l=0.5u
X158 VSS IM.t19 CM_MSB_V2_0.SD.t54 VSS.t103 nfet_03v3 ad=0.312p pd=1.72u as=0.312p ps=1.72u w=1.2u l=0.5u
X159 CM_MSB_V2_0.SD IM_T.t23 CM_MSB_V2_0.OUT.t1 VSS.t5 nfet_03v3 ad=0.312p pd=1.72u as=0.528p ps=3.28u w=1.2u l=0.5u
X160 CM_MSB_V2_0.OUT Local_Enc_0.QB.t46 IOUT-.t21 VSS.t42 nfet_03v3 ad=0.156p pd=1.12u as=0.156p ps=1.12u w=0.6u l=0.5u
X161 CM_MSB_V2_0.OUT Local_Enc_0.QB.t47 IOUT-.t20 VSS.t46 nfet_03v3 ad=0.156p pd=1.12u as=0.156p ps=1.12u w=0.6u l=0.5u
X162 CM_MSB_V2_0.OUT Local_Enc_0.QB.t48 IOUT-.t19 VSS.t41 nfet_03v3 ad=0.156p pd=1.12u as=0.156p ps=1.12u w=0.6u l=0.5u
X163 VSS IM.t20 CM_MSB_V2_0.SD.t55 VSS.t21 nfet_03v3 ad=0.312p pd=1.72u as=0.312p ps=1.72u w=1.2u l=0.5u
X164 CM_MSB_V2_0.OUT IM_T.t24 CM_MSB_V2_0.SD.t8 VSS.t6 nfet_03v3 ad=0.312p pd=1.72u as=0.312p ps=1.72u w=1.2u l=0.5u
X165 VDD Local_Enc_0.NAND_8.A Local_Enc_0.NAND_4.B VDD.t8 pfet_03v3 ad=0.22p pd=1.88u as=0.13p ps=1.02u w=0.5u l=0.28u
X166 Local_Enc_0.NAND_8.A Local_Enc_0.NAND_5.A a_n1846_4741# VSS.t7 nfet_03v3 ad=0.22p pd=1.88u as=0.13p ps=1.02u w=0.5u l=0.28u
X167 CM_MSB_V2_0.SD IM.t21 VSS.t91 VSS.t14 nfet_03v3 ad=0.312p pd=1.72u as=0.312p ps=1.72u w=1.2u l=0.5u
X168 CM_MSB_V2_0.OUT Local_Enc_0.Q.t56 IOUT+.t12 VSS.t54 nfet_03v3 ad=0.156p pd=1.12u as=0.156p ps=1.12u w=0.6u l=0.5u
X169 CM_MSB_V2_0.OUT Local_Enc_0.Q.t57 IOUT+.t11 VSS.t41 nfet_03v3 ad=0.156p pd=1.12u as=0.156p ps=1.12u w=0.6u l=0.5u
X170 CM_MSB_V2_0.OUT Local_Enc_0.QB.t49 IOUT-.t18 VSS.t45 nfet_03v3 ad=0.156p pd=1.12u as=0.156p ps=1.12u w=0.6u l=0.5u
X171 Local_Enc_0.NAND_4.B Local_Enc_0.NAND_8.A VDD.t7 VDD.t6 pfet_03v3 ad=0.13p pd=1.02u as=0.22p ps=1.88u w=0.5u l=0.28u
X172 Local_Enc_0.NAND_1.B Ri-1.t0 VDD.t25 VDD.t24 pfet_03v3 ad=0.13p pd=1.02u as=0.22p ps=1.88u w=0.5u l=0.28u
X173 a_n2609_5712# Ri-1.t1 VSS.t61 VSS.t60 nfet_03v3 ad=0.13p pd=1.02u as=0.22p ps=1.88u w=0.5u l=0.28u
X174 CM_MSB_V2_0.OUT Local_Enc_0.QB.t50 IOUT-.t17 VSS.t44 nfet_03v3 ad=0.156p pd=1.12u as=0.156p ps=1.12u w=0.6u l=0.5u
X175 CM_MSB_V2_0.OUT IM_T.t25 CM_MSB_V2_0.SD.t7 VSS.t113 nfet_03v3 ad=0.528p pd=3.28u as=0.312p ps=1.72u w=1.2u l=0.5u
X176 IOUT+ Local_Enc_0.Q.t58 CM_MSB_V2_0.OUT.t95 VSS.t52 nfet_03v3 ad=0.156p pd=1.12u as=0.156p ps=1.12u w=0.6u l=0.5u
X177 CM_MSB_V2_0.OUT Local_Enc_0.QB.t51 IOUT-.t16 VSS.t54 nfet_03v3 ad=0.156p pd=1.12u as=0.156p ps=1.12u w=0.6u l=0.5u
X178 CM_MSB_V2_0.OUT Local_Enc_0.QB.t52 IOUT-.t15 VSS.t43 nfet_03v3 ad=0.156p pd=1.12u as=0.156p ps=1.12u w=0.6u l=0.5u
X179 IOUT- Local_Enc_0.QB.t53 CM_MSB_V2_0.OUT.t42 VSS.t53 nfet_03v3 ad=0.156p pd=1.12u as=0.156p ps=1.12u w=0.6u l=0.5u
X180 CM_MSB_V2_0.SD IM.t22 VSS.t92 VSS.t29 nfet_03v3 ad=0.312p pd=1.72u as=0.312p ps=1.72u w=1.2u l=0.5u
X181 IOUT- Local_Enc_0.QB.t54 CM_MSB_V2_0.OUT.t41 VSS.t52 nfet_03v3 ad=0.156p pd=1.12u as=0.156p ps=1.12u w=0.6u l=0.5u
X182 VDD Ri-1.t2 Local_Enc_0.NAND_1.B VDD.t0 pfet_03v3 ad=0.22p pd=1.88u as=0.13p ps=1.02u w=0.5u l=0.28u
X183 Local_Enc_0.NAND_1.B Ri-1.t3 a_n2609_5712# VSS.t30 nfet_03v3 ad=0.22p pd=1.88u as=0.13p ps=1.02u w=0.5u l=0.28u
X184 VSS IM.t23 CM_MSB_V2_0.SD.t45 VSS.t18 nfet_03v3 ad=0.312p pd=1.72u as=0.312p ps=1.72u w=1.2u l=0.5u
X185 IOUT+ Local_Enc_0.Q.t59 CM_MSB_V2_0.OUT.t127 VSS.t50 nfet_03v3 ad=0.156p pd=1.12u as=0.156p ps=1.12u w=0.6u l=0.5u
X186 IOUT+ Local_Enc_0.Q.t60 CM_MSB_V2_0.OUT.t128 VSS.t53 nfet_03v3 ad=0.156p pd=1.12u as=0.156p ps=1.12u w=0.6u l=0.5u
X187 CM_MSB_V2_0.SD IM.t24 VSS.t90 VSS.t63 nfet_03v3 ad=0.312p pd=1.72u as=0.312p ps=1.72u w=1.2u l=0.5u
X188 IOUT+ Local_Enc_0.Q.t61 CM_MSB_V2_0.OUT.t100 VSS.t48 nfet_03v3 ad=0.156p pd=1.12u as=0.156p ps=1.12u w=0.6u l=0.5u
X189 CM_MSB_V2_0.OUT IM_T.t26 CM_MSB_V2_0.SD.t6 VSS.t119 nfet_03v3 ad=0.312p pd=1.72u as=0.312p ps=1.72u w=1.2u l=0.5u
X190 IOUT+ Local_Enc_0.Q.t62 CM_MSB_V2_0.OUT.t149 VSS.t47 nfet_03v3 ad=0.156p pd=1.12u as=0.156p ps=1.12u w=0.6u l=0.5u
X191 IOUT+ Local_Enc_0.Q.t63 CM_MSB_V2_0.OUT.t137 VSS.t55 nfet_03v3 ad=0.156p pd=1.12u as=0.156p ps=1.12u w=0.6u l=0.5u
X192 CM_MSB_V2_0.OUT Local_Enc_0.QB.t55 IOUT-.t12 VSS.t51 nfet_03v3 ad=0.156p pd=1.12u as=0.264p ps=2.08u w=0.6u l=0.5u
X193 IOUT- Local_Enc_0.QB.t56 CM_MSB_V2_0.OUT.t40 VSS.t50 nfet_03v3 ad=0.156p pd=1.12u as=0.156p ps=1.12u w=0.6u l=0.5u
X194 IOUT- Local_Enc_0.QB.t57 CM_MSB_V2_0.OUT.t39 VSS.t49 nfet_03v3 ad=0.156p pd=1.12u as=0.156p ps=1.12u w=0.6u l=0.5u
X195 IOUT- Local_Enc_0.QB.t58 CM_MSB_V2_0.OUT.t38 VSS.t40 nfet_03v3 ad=0.264p pd=2.08u as=0.156p ps=1.12u w=0.6u l=0.5u
X196 IOUT- Local_Enc_0.QB.t59 CM_MSB_V2_0.OUT.t37 VSS.t48 nfet_03v3 ad=0.156p pd=1.12u as=0.156p ps=1.12u w=0.6u l=0.5u
X197 IOUT- Local_Enc_0.QB.t60 CM_MSB_V2_0.OUT.t36 VSS.t47 nfet_03v3 ad=0.156p pd=1.12u as=0.156p ps=1.12u w=0.6u l=0.5u
X198 CM_MSB_V2_0.OUT Local_Enc_0.QB.t61 IOUT-.t6 VSS.t46 nfet_03v3 ad=0.156p pd=1.12u as=0.156p ps=1.12u w=0.6u l=0.5u
X199 CM_MSB_V2_0.OUT Local_Enc_0.Q.t64 IOUT+.t4 VSS.t51 nfet_03v3 ad=0.156p pd=1.12u as=0.264p ps=2.08u w=0.6u l=0.5u
X200 IOUT+ Local_Enc_0.Q.t65 CM_MSB_V2_0.OUT.t115 VSS.t49 nfet_03v3 ad=0.156p pd=1.12u as=0.156p ps=1.12u w=0.6u l=0.5u
X201 CM_MSB_V2_0.SD IM_T.t27 CM_MSB_V2_0.OUT.t156 VSS.t68 nfet_03v3 ad=0.312p pd=1.72u as=0.312p ps=1.72u w=1.2u l=0.5u
X202 CM_MSB_V2_0.OUT Local_Enc_0.QB.t62 IOUT-.t5 VSS.t45 nfet_03v3 ad=0.156p pd=1.12u as=0.156p ps=1.12u w=0.6u l=0.5u
X203 CM_MSB_V2_0.OUT Local_Enc_0.QB.t63 IOUT-.t4 VSS.t44 nfet_03v3 ad=0.156p pd=1.12u as=0.156p ps=1.12u w=0.6u l=0.5u
X204 CM_MSB_V2_0.SD IM.t25 VSS.t87 VSS.t16 nfet_03v3 ad=0.312p pd=1.72u as=0.312p ps=1.72u w=1.2u l=0.5u
X205 CM_MSB_V2_0.OUT Local_Enc_0.QB.t64 IOUT-.t3 VSS.t43 nfet_03v3 ad=0.156p pd=1.12u as=0.156p ps=1.12u w=0.6u l=0.5u
X206 CM_MSB_V2_0.OUT Local_Enc_0.Q.t66 IOUT+.t2 VSS.t42 nfet_03v3 ad=0.156p pd=1.12u as=0.156p ps=1.12u w=0.6u l=0.5u
X207 CM_MSB_V2_0.OUT IM_T.t28 CM_MSB_V2_0.SD.t4 VSS.t97 nfet_03v3 ad=0.312p pd=1.72u as=0.312p ps=1.72u w=1.2u l=0.5u
X208 CM_MSB_V2_0.SD IM.t26 VSS.t77 VSS.t17 nfet_03v3 ad=0.312p pd=1.72u as=0.312p ps=1.72u w=1.2u l=0.5u
X209 CM_MSB_V2_0.SD IM_T.t29 CM_MSB_V2_0.OUT.t158 VSS.t93 nfet_03v3 ad=0.312p pd=1.72u as=0.312p ps=1.72u w=1.2u l=0.5u
X210 CM_MSB_V2_0.OUT Local_Enc_0.QB.t65 IOUT-.t2 VSS.t42 nfet_03v3 ad=0.156p pd=1.12u as=0.156p ps=1.12u w=0.6u l=0.5u
X211 CM_MSB_V2_0.OUT Local_Enc_0.QB.t66 IOUT-.t1 VSS.t41 nfet_03v3 ad=0.156p pd=1.12u as=0.156p ps=1.12u w=0.6u l=0.5u
X212 VSS IM.t27 CM_MSB_V2_0.SD.t39 VSS.t33 nfet_03v3 ad=0.312p pd=1.72u as=0.312p ps=1.72u w=1.2u l=0.5u
X213 IOUT- Local_Enc_0.QB.t67 CM_MSB_V2_0.OUT.t35 VSS.t40 nfet_03v3 ad=0.264p pd=2.08u as=0.156p ps=1.12u w=0.6u l=0.5u
X214 VDD Local_Enc_0.NAND_8.A Local_Enc_0.Q.t1 VDD.t3 pfet_03v3 ad=0.22p pd=1.88u as=0.13p ps=1.02u w=0.5u l=0.28u
X215 CM_MSB_V2_0.OUT Local_Enc_0.Q.t67 IOUT+.t1 VSS.t54 nfet_03v3 ad=0.156p pd=1.12u as=0.156p ps=1.12u w=0.6u l=0.5u
X216 VSS IM.t28 CM_MSB_V2_0.SD.t42 VSS.t19 nfet_03v3 ad=0.312p pd=1.72u as=0.312p ps=1.72u w=1.2u l=0.5u
X217 CM_MSB_V2_0.SD IM.t29 VSS.t85 VSS.t34 nfet_03v3 ad=0.312p pd=1.72u as=0.312p ps=1.72u w=1.2u l=0.5u
X218 CM_MSB_V2_0.OUT Local_Enc_0.Q.t68 IOUT+.t0 VSS.t46 nfet_03v3 ad=0.156p pd=1.12u as=0.156p ps=1.12u w=0.6u l=0.5u
X219 CM_MSB_V2_0.OUT IM_T.t30 CM_MSB_V2_0.SD.t2 VSS.t116 nfet_03v3 ad=0.312p pd=1.72u as=0.312p ps=1.72u w=1.2u l=0.5u
X220 Local_Enc_0.NAND_5.B Local_Enc_0.NAND_1.B a_n1846_5712# VSS.t24 nfet_03v3 ad=0.22p pd=1.88u as=0.13p ps=1.02u w=0.5u l=0.28u
X221 Local_Enc_0.Q Local_Enc_0.QB.t68 VDD.t32 VDD.t31 pfet_03v3 ad=0.13p pd=1.02u as=0.22p ps=1.88u w=0.5u l=0.28u
X222 CM_MSB_V2_0.OUT IM_T.t31 CM_MSB_V2_0.SD.t1 VSS.t15 nfet_03v3 ad=0.312p pd=1.72u as=0.312p ps=1.72u w=1.2u l=0.5u
X223 Local_Enc_0.NAND_4.B Local_Enc_0.NAND_8.A a_n1035_3765# VSS.t2 nfet_03v3 ad=0.22p pd=1.88u as=0.13p ps=1.02u w=0.5u l=0.28u
X224 VDD Local_Enc_0.NAND_1.B Local_Enc_0.NAND_5.B VDD.t14 pfet_03v3 ad=0.22p pd=1.88u as=0.13p ps=1.02u w=0.5u l=0.28u
X225 VSS IM.t30 CM_MSB_V2_0.SD.t36 VSS.t73 nfet_03v3 ad=0.312p pd=1.72u as=0.312p ps=1.72u w=1.2u l=0.5u
X226 CM_MSB_V2_0.SD IM.t31 VSS.t76 VSS.t12 nfet_03v3 ad=0.312p pd=1.72u as=0.312p ps=1.72u w=1.2u l=0.5u
X227 a_n1035_3765# Local_Enc_0.NAND_8.A VSS.t1 VSS.t0 nfet_03v3 ad=0.13p pd=1.02u as=0.22p ps=1.88u w=0.5u l=0.28u
R0 Local_Enc_0.QB.n1 Local_Enc_0.QB.t14 26.9784
R1 Local_Enc_0.QB.n17 Local_Enc_0.QB.t29 24.9712
R2 Local_Enc_0.QB.n32 Local_Enc_0.QB.t58 24.9712
R3 Local_Enc_0.QB.n47 Local_Enc_0.QB.t43 24.9712
R4 Local_Enc_0.QB.n2 Local_Enc_0.QB.t67 24.9712
R5 Local_Enc_0.QB.n62 Local_Enc_0.QB.n61 21.4076
R6 Local_Enc_0.QB.n0 Local_Enc_0.QB.n16 21.1997
R7 Local_Enc_0.QB.n0 Local_Enc_0.QB.n31 20.1581
R8 Local_Enc_0.QB.n62 Local_Enc_0.QB.n46 20.1567
R9 Local_Enc_0.QB.n19 Local_Enc_0.QB.t23 15.1115
R10 Local_Enc_0.QB.n20 Local_Enc_0.QB.t57 15.1115
R11 Local_Enc_0.QB.n23 Local_Enc_0.QB.t34 15.1115
R12 Local_Enc_0.QB.n24 Local_Enc_0.QB.t4 15.1115
R13 Local_Enc_0.QB.n27 Local_Enc_0.QB.t20 15.1115
R14 Local_Enc_0.QB.n28 Local_Enc_0.QB.t38 15.1115
R15 Local_Enc_0.QB.n34 Local_Enc_0.QB.t50 15.1115
R16 Local_Enc_0.QB.n35 Local_Enc_0.QB.t19 15.1115
R17 Local_Enc_0.QB.n38 Local_Enc_0.QB.t66 15.1115
R18 Local_Enc_0.QB.n39 Local_Enc_0.QB.t31 15.1115
R19 Local_Enc_0.QB.n42 Local_Enc_0.QB.t47 15.1115
R20 Local_Enc_0.QB.n43 Local_Enc_0.QB.t3 15.1115
R21 Local_Enc_0.QB.n49 Local_Enc_0.QB.t36 15.1115
R22 Local_Enc_0.QB.n50 Local_Enc_0.QB.t6 15.1115
R23 Local_Enc_0.QB.n53 Local_Enc_0.QB.t48 15.1115
R24 Local_Enc_0.QB.n54 Local_Enc_0.QB.t16 15.1115
R25 Local_Enc_0.QB.n57 Local_Enc_0.QB.t35 15.1115
R26 Local_Enc_0.QB.n58 Local_Enc_0.QB.t53 15.1115
R27 Local_Enc_0.QB.n4 Local_Enc_0.QB.t63 15.1115
R28 Local_Enc_0.QB.n5 Local_Enc_0.QB.t28 15.1115
R29 Local_Enc_0.QB.n8 Local_Enc_0.QB.t9 15.1115
R30 Local_Enc_0.QB.n9 Local_Enc_0.QB.t39 15.1115
R31 Local_Enc_0.QB.n12 Local_Enc_0.QB.t61 15.1115
R32 Local_Enc_0.QB.n13 Local_Enc_0.QB.t12 15.1115
R33 Local_Enc_0.QB.n1 Local_Enc_0.QB.t68 14.7248
R34 Local_Enc_0.QB.n17 Local_Enc_0.QB.t46 14.4545
R35 Local_Enc_0.QB.n18 Local_Enc_0.QB.t45 14.4545
R36 Local_Enc_0.QB.n21 Local_Enc_0.QB.t64 14.4545
R37 Local_Enc_0.QB.n22 Local_Enc_0.QB.t30 14.4545
R38 Local_Enc_0.QB.n25 Local_Enc_0.QB.t24 14.4545
R39 Local_Enc_0.QB.n26 Local_Enc_0.QB.t40 14.4545
R40 Local_Enc_0.QB.n29 Local_Enc_0.QB.t62 14.4545
R41 Local_Enc_0.QB.n30 Local_Enc_0.QB.t27 14.4545
R42 Local_Enc_0.QB.n32 Local_Enc_0.QB.t13 14.4545
R43 Local_Enc_0.QB.n33 Local_Enc_0.QB.t8 14.4545
R44 Local_Enc_0.QB.n36 Local_Enc_0.QB.t25 14.4545
R45 Local_Enc_0.QB.n37 Local_Enc_0.QB.t60 14.4545
R46 Local_Enc_0.QB.n40 Local_Enc_0.QB.t51 14.4545
R47 Local_Enc_0.QB.n41 Local_Enc_0.QB.t5 14.4545
R48 Local_Enc_0.QB.n44 Local_Enc_0.QB.t22 14.4545
R49 Local_Enc_0.QB.n45 Local_Enc_0.QB.t56 14.4545
R50 Local_Enc_0.QB.n47 Local_Enc_0.QB.t41 14.4545
R51 Local_Enc_0.QB.n48 Local_Enc_0.QB.t33 14.4545
R52 Local_Enc_0.QB.n51 Local_Enc_0.QB.t52 14.4545
R53 Local_Enc_0.QB.n52 Local_Enc_0.QB.t21 14.4545
R54 Local_Enc_0.QB.n55 Local_Enc_0.QB.t15 14.4545
R55 Local_Enc_0.QB.n56 Local_Enc_0.QB.t32 14.4545
R56 Local_Enc_0.QB.n59 Local_Enc_0.QB.t49 14.4545
R57 Local_Enc_0.QB.n60 Local_Enc_0.QB.t18 14.4545
R58 Local_Enc_0.QB.n2 Local_Enc_0.QB.t65 14.4545
R59 Local_Enc_0.QB.n3 Local_Enc_0.QB.t59 14.4545
R60 Local_Enc_0.QB.n6 Local_Enc_0.QB.t11 14.4545
R61 Local_Enc_0.QB.n7 Local_Enc_0.QB.t44 14.4545
R62 Local_Enc_0.QB.n10 Local_Enc_0.QB.t37 14.4545
R63 Local_Enc_0.QB.n11 Local_Enc_0.QB.t54 14.4545
R64 Local_Enc_0.QB.n14 Local_Enc_0.QB.t10 14.4545
R65 Local_Enc_0.QB.n15 Local_Enc_0.QB.t42 14.4545
R66 Local_Enc_0.QB.n31 Local_Enc_0.QB.n30 12.7802