* NGSPICE file created from CM_LSB_mod_flat.ext - technology: gf180mcuC

.subckt pex_CM_LSB_mod ITAIL VSS OUT_1 OUT_2 VDD OUT_3 OUT_4 OUT_5 OUT_6
X0 OUT_6 ITAIL_1.t24 SD3_1.t42 VSS.t107 nfet_03v3 ad=0.156p pd=1.12u as=0.156p ps=1.12u w=0.6u l=0.5u
X1 G2_1 ITAIL.t0 ITAIL.t1 VSS.t51 nfet_03v3 ad=0.156p pd=1.12u as=0.264p ps=2.08u w=0.6u l=0.5u
X2 VDD G1_1.t10 G1_1.t11 VDD.t37 pfet_03v3 ad=0.264p pd=2.08u as=0.156p ps=1.12u w=0.6u l=0.5u
X3 OUT_6 ITAIL_1.t25 SD3_1.t41 VSS.t106 nfet_03v3 ad=0.264p pd=2.08u as=0.156p ps=1.12u w=0.6u l=0.5u
X4 VSS G2_1.t3 SD2_4.t7 VSS.t141 nfet_03v3 ad=0.264p pd=2.08u as=0.156p ps=1.12u w=0.6u l=0.5u
X5 OUT_4 ITAIL.t2 SD2_5.t3 VSS.t195 nfet_03v3 ad=0.264p pd=2.08u as=0.156p ps=1.12u w=0.6u l=0.5u
X6 ITAIL_1 ITAIL_1.t19 SD0_2.t7 VSS.t37 nfet_03v3 ad=0.156p pd=1.12u as=0.156p ps=1.12u w=0.6u l=0.5u
X7 SD0_2 SD0_2.t22 VSS.t164 VSS.t103 nfet_03v3 ad=0.156p pd=1.12u as=0.264p ps=2.08u w=0.6u l=0.5u
X8 SD3_1 SD0_2.t25 VSS.t165 VSS.t86 nfet_03v3 ad=0.156p pd=1.12u as=0.156p ps=1.12u w=0.6u l=0.5u
X9 SD3_1 ITAIL_1.t27 OUT_6.t29 VSS.t105 nfet_03v3 ad=0.156p pd=1.12u as=0.156p ps=1.12u w=0.6u l=0.5u
X10 SD2_5 G2_1.t4 VSS.t175 VSS.t174 nfet_03v3 ad=0.156p pd=1.12u as=0.156p ps=1.12u w=0.6u l=0.5u
X11 VSS G2_1.t5 SD2_5.t14 VSS.t5 nfet_03v3 ad=0.156p pd=1.12u as=0.156p ps=1.12u w=0.6u l=0.5u
X12 OUT_5 ITAIL_1.t28 SD0_1.t7 VSS.t42 nfet_03v3 ad=0.156p pd=1.12u as=0.156p ps=1.12u w=0.6u l=0.5u
X13 SD2_1 G2_1.t6 VSS.t148 VSS.t147 nfet_03v3 ad=0.156p pd=1.12u as=0.156p ps=1.12u w=0.6u l=0.5u
X14 OUT_4 ITAIL.t3 SD2_5.t2 VSS.t195 nfet_03v3 ad=0.264p pd=2.08u as=0.156p ps=1.12u w=0.6u l=0.5u
X15 SD0_1 SD0_2.t26 VSS.t149 VSS.t70 nfet_03v3 ad=0.156p pd=1.12u as=0.156p ps=1.12u w=0.6u l=0.5u
X16 G1_1 G1_1.t14 VDD.t36 VDD.t35 pfet_03v3 ad=0.156p pd=1.12u as=0.156p ps=1.12u w=0.6u l=0.5u
X17 VSS G2_1.t7 SD2_2.t1 VSS.t25 nfet_03v3 ad=0.264p pd=2.08u as=0.156p ps=1.12u w=0.6u l=0.5u
X18 VSS SD0_2.t27 SD0_1.t30 VSS.t100 nfet_03v3 ad=0.264p pd=2.08u as=0.156p ps=1.12u w=0.6u l=0.5u
X19 SD0_2 ITAIL_1.t15 ITAIL_1.t16 VSS.t104 nfet_03v3 ad=0.156p pd=1.12u as=0.156p ps=1.12u w=0.6u l=0.5u
X20 VDD G1_1.t8 G1_1.t9 VDD.t32 pfet_03v3 ad=0.156p pd=1.12u as=0.156p ps=1.12u w=0.6u l=0.5u
X21 SD0_2 ITAIL_1.t13 ITAIL_1.t14 VSS.t103 nfet_03v3 ad=0.156p pd=1.12u as=0.264p ps=2.08u w=0.6u l=0.5u
X22 SD0_1 ITAIL_1.t29 OUT_5.t14 VSS.t102 nfet_03v3 ad=0.156p pd=1.12u as=0.156p ps=1.12u w=0.6u l=0.5u
X23 OUT_6 ITAIL_1.t30 SD3_1.t40 VSS.t53 nfet_03v3 ad=0.156p pd=1.12u as=0.156p ps=1.12u w=0.6u l=0.5u
X24 VSS SD0_2.t28 SD3_1.t52 VSS.t81 nfet_03v3 ad=0.156p pd=1.12u as=0.156p ps=1.12u w=0.6u l=0.5u
X25 VSS SD0_2.t29 SD0_1.t29 VSS.t42 nfet_03v3 ad=0.156p pd=1.12u as=0.156p ps=1.12u w=0.6u l=0.5u
X26 SD2_5 G2_1.t8 VSS.t192 VSS.t174 nfet_03v3 ad=0.156p pd=1.12u as=0.156p ps=1.12u w=0.6u l=0.5u
X27 ITAIL_1 ITAIL_1.t17 SD0_2.t4 VSS.t101 nfet_03v3 ad=0.156p pd=1.12u as=0.156p ps=1.12u w=0.6u l=0.5u
X28 OUT_6 ITAIL_1.t32 SD3_1.t39 VSS.t60 nfet_03v3 ad=0.156p pd=1.12u as=0.156p ps=1.12u w=0.6u l=0.5u
X29 SD3_1 ITAIL_1.t33 OUT_6.t26 VSS.t56 nfet_03v3 ad=0.156p pd=1.12u as=0.156p ps=1.12u w=0.6u l=0.5u
X30 OUT_5 ITAIL_1.t34 SD0_1.t6 VSS.t100 nfet_03v3 ad=0.264p pd=2.08u as=0.156p ps=1.12u w=0.6u l=0.5u
X31 SD0_2 SD0_2.t20 VSS.t168 VSS.t104 nfet_03v3 ad=0.156p pd=1.12u as=0.156p ps=1.12u w=0.6u l=0.5u
X32 SD2_1 G2_1.t9 VSS.t157 VSS.t147 nfet_03v3 ad=0.156p pd=1.12u as=0.156p ps=1.12u w=0.6u l=0.5u
X33 VSS SD0_2.t31 SD3_1.t7 VSS.t45 nfet_03v3 ad=0.156p pd=1.12u as=0.156p ps=1.12u w=0.6u l=0.5u
X34 VSS SD0_2.t32 SD3_1.t46 VSS.t79 nfet_03v3 ad=0.156p pd=1.12u as=0.156p ps=1.12u w=0.6u l=0.5u
X35 SD3_1 SD0_2.t33 VSS.t126 VSS.t80 nfet_03v3 ad=0.156p pd=1.12u as=0.156p ps=1.12u w=0.6u l=0.5u
X36 SD3_1 ITAIL_1.t35 OUT_6.t25 VSS.t58 nfet_03v3 ad=0.156p pd=1.12u as=0.156p ps=1.12u w=0.6u l=0.5u
X37 SD2_2 ITAIL.t4 OUT_1.t0 VSS.t51 nfet_03v3 ad=0.156p pd=1.12u as=0.264p ps=2.08u w=0.6u l=0.5u
X38 SD0_1 SD0_2.t34 VSS.t127 VSS.t102 nfet_03v3 ad=0.156p pd=1.12u as=0.156p ps=1.12u w=0.6u l=0.5u
X39 OUT_3 ITAIL.t5 SD2_4.t3 VSS.t52 nfet_03v3 ad=0.264p pd=2.08u as=0.156p ps=1.12u w=0.6u l=0.5u
X40 SD3_1 SD0_2.t35 VSS.t1 VSS.t0 nfet_03v3 ad=0.156p pd=1.12u as=0.156p ps=1.12u w=0.6u l=0.5u
X41 G1_1 G1_1.t12 VDD.t31 VDD.t30 pfet_03v3 ad=0.156p pd=1.12u as=0.156p ps=1.12u w=0.6u l=0.5u
X42 OUT_5 ITAIL_1.t36 SD0_1.t5 VSS.t99 nfet_03v3 ad=0.156p pd=1.12u as=0.156p ps=1.12u w=0.6u l=0.5u
X43 VSS SD0_2.t36 SD3_1.t1 VSS.t2 nfet_03v3 ad=0.156p pd=1.12u as=0.156p ps=1.12u w=0.6u l=0.5u
X44 SD3_1 SD0_2.t37 VSS.t110 VSS.t78 nfet_03v3 ad=0.156p pd=1.12u as=0.264p ps=2.08u w=0.6u l=0.5u
X45 VSS SD0_2.t18 SD0_2.t19 VSS.t101 nfet_03v3 ad=0.156p pd=1.12u as=0.156p ps=1.12u w=0.6u l=0.5u
X46 VSS G2_1.t10 SD2_5.t12 VSS.t17 nfet_03v3 ad=0.156p pd=1.12u as=0.156p ps=1.12u w=0.6u l=0.5u
X47 SD3_1 ITAIL_1.t37 OUT_6.t24 VSS.t68 nfet_03v3 ad=0.156p pd=1.12u as=0.156p ps=1.12u w=0.6u l=0.5u
X48 OUT_6 ITAIL_1.t38 SD3_1.t38 VSS.t98 nfet_03v3 ad=0.156p pd=1.12u as=0.156p ps=1.12u w=0.6u l=0.5u
X49 G1_2 ITAIL.t6 SD2_1.t7 VSS.t115 nfet_03v3 ad=0.264p pd=2.08u as=0.156p ps=1.12u w=0.6u l=0.5u
X50 SD2_1 ITAIL.t7 G1_2.t6 VSS.t144 nfet_03v3 ad=0.156p pd=1.12u as=0.264p ps=2.08u w=0.6u l=0.5u
X51 VSS SD0_2.t38 SD0_1.t27 VSS.t97 nfet_03v3 ad=0.264p pd=2.08u as=0.156p ps=1.12u w=0.6u l=0.5u
X52 VSS G2_1.t11 SD2_5.t11 VSS.t17 nfet_03v3 ad=0.156p pd=1.12u as=0.156p ps=1.12u w=0.6u l=0.5u
X53 G1_2 G1_2.t22 G1_1.t21 VDD.t50 pfet_03v3 ad=0.156p pd=1.12u as=0.156p ps=1.12u w=0.6u l=0.5u
X54 SD0_1 SD0_2.t39 VSS.t138 VSS.t95 nfet_03v3 ad=0.156p pd=1.12u as=0.156p ps=1.12u w=0.6u l=0.5u
X55 OUT_2 ITAIL.t8 SD2_3.t0 VSS.t48 nfet_03v3 ad=0.264p pd=2.08u as=0.264p ps=2.08u w=0.6u l=0.5u
X56 VSS SD0_2.t40 SD0_1.t25 VSS.t99 nfet_03v3 ad=0.156p pd=1.12u as=0.156p ps=1.12u w=0.6u l=0.5u
X57 VSS G2_1.t12 SD2_1.t13 VSS.t20 nfet_03v3 ad=0.156p pd=1.12u as=0.156p ps=1.12u w=0.6u l=0.5u
X58 SD1_1 G1_1.t26 VDD.t29 VDD.t28 pfet_03v3 ad=0.156p pd=1.12u as=0.264p ps=2.08u w=0.6u l=0.5u
X59 SD2_4 ITAIL.t9 OUT_3.t2 VSS.t35 nfet_03v3 ad=0.156p pd=1.12u as=0.264p ps=2.08u w=0.6u l=0.5u
X60 SD2_5 G2_1.t13 VSS.t119 VSS.t15 nfet_03v3 ad=0.156p pd=1.12u as=0.156p ps=1.12u w=0.6u l=0.5u
X61 ITAIL_1 G1_2.t25 SD1_1.t15 VDD.t51 pfet_03v3 ad=0.156p pd=1.12u as=0.156p ps=1.12u w=0.6u l=0.5u
X62 VSS SD0_2.t41 SD3_1.t2 VSS.t10 nfet_03v3 ad=0.156p pd=1.12u as=0.156p ps=1.12u w=0.6u l=0.5u
X63 OUT_5 ITAIL_1.t39 SD0_1.t4 VSS.t97 nfet_03v3 ad=0.264p pd=2.08u as=0.156p ps=1.12u w=0.6u l=0.5u
X64 VSS SD0_2.t16 SD0_2.t17 VSS.t87 nfet_03v3 ad=0.264p pd=2.08u as=0.156p ps=1.12u w=0.6u l=0.5u
X65 SD3_1 SD0_2.t42 VSS.t14 VSS.t13 nfet_03v3 ad=0.156p pd=1.12u as=0.156p ps=1.12u w=0.6u l=0.5u
X66 SD3_1 ITAIL_1.t40 OUT_6.t22 VSS.t96 nfet_03v3 ad=0.156p pd=1.12u as=0.156p ps=1.12u w=0.6u l=0.5u
X67 SD0_1 ITAIL_1.t41 OUT_5.t10 VSS.t95 nfet_03v3 ad=0.156p pd=1.12u as=0.156p ps=1.12u w=0.6u l=0.5u
X68 OUT_5 ITAIL_1.t42 SD0_1.t3 VSS.t94 nfet_03v3 ad=0.156p pd=1.12u as=0.156p ps=1.12u w=0.6u l=0.5u
X69 VSS G2_1.t14 SD2_4.t6 VSS.t141 nfet_03v3 ad=0.264p pd=2.08u as=0.156p ps=1.12u w=0.6u l=0.5u
X70 SD3_1 ITAIL_1.t43 OUT_6.t21 VSS.t93 nfet_03v3 ad=0.156p pd=1.12u as=0.156p ps=1.12u w=0.6u l=0.5u
X71 SD3_1 SD0_2.t43 VSS.t31 VSS.t30 nfet_03v3 ad=0.156p pd=1.12u as=0.156p ps=1.12u w=0.6u l=0.5u
X72 G1_1 G1_2.t20 G1_2.t21 VDD.t49 pfet_03v3 ad=0.156p pd=1.12u as=0.156p ps=1.12u w=0.6u l=0.5u
X73 VDD G1_1.t6 G1_1.t7 VDD.t25 pfet_03v3 ad=0.156p pd=1.12u as=0.156p ps=1.12u w=0.6u l=0.5u
X74 VSS SD0_2.t44 SD3_1.t6 VSS.t32 nfet_03v3 ad=0.156p pd=1.12u as=0.156p ps=1.12u w=0.6u l=0.5u
X75 VSS SD0_2.t45 SD3_1.t61 VSS.t75 nfet_03v3 ad=0.156p pd=1.12u as=0.156p ps=1.12u w=0.6u l=0.5u
X76 SD0_2 SD0_2.t14 VSS.t191 VSS.t85 nfet_03v3 ad=0.156p pd=1.12u as=0.156p ps=1.12u w=0.6u l=0.5u
X77 OUT_6 ITAIL_1.t44 SD3_1.t37 VSS.t92 nfet_03v3 ad=0.156p pd=1.12u as=0.156p ps=1.12u w=0.6u l=0.5u
X78 VDD G1_1.t27 SD1_1.t6 VDD.t22 pfet_03v3 ad=0.264p pd=2.08u as=0.156p ps=1.12u w=0.6u l=0.5u
X79 OUT_6 ITAIL_1.t45 SD3_1.t36 VSS.t91 nfet_03v3 ad=0.156p pd=1.12u as=0.156p ps=1.12u w=0.6u l=0.5u
X80 SD3_1 ITAIL_1.t46 OUT_6.t18 VSS.t90 nfet_03v3 ad=0.156p pd=1.12u as=0.156p ps=1.12u w=0.6u l=0.5u
X81 SD2_1 ITAIL.t10 G1_2.t5 VSS.t144 nfet_03v3 ad=0.156p pd=1.12u as=0.264p ps=2.08u w=0.6u l=0.5u
X82 ITAIL_1 G1_2.t26 SD1_1.t14 VDD.t52 pfet_03v3 ad=0.156p pd=1.12u as=0.156p ps=1.12u w=0.6u l=0.5u
X83 OUT_6 ITAIL_1.t47 SD3_1.t35 VSS.t89 nfet_03v3 ad=0.156p pd=1.12u as=0.156p ps=1.12u w=0.6u l=0.5u
X84 SD2_1 ITAIL.t11 G1_2.t4 VSS.t145 nfet_03v3 ad=0.156p pd=1.12u as=0.264p ps=2.08u w=0.6u l=0.5u
X85 SD3_1 ITAIL_1.t48 OUT_6.t16 VSS.t28 nfet_03v3 ad=0.156p pd=1.12u as=0.156p ps=1.12u w=0.6u l=0.5u
X86 SD3_1 ITAIL_1.t49 OUT_6.t15 VSS.t88 nfet_03v3 ad=0.156p pd=1.12u as=0.156p ps=1.12u w=0.6u l=0.5u
X87 SD3_1 SD0_2.t47 VSS.t158 VSS.t73 nfet_03v3 ad=0.156p pd=1.12u as=0.156p ps=1.12u w=0.6u l=0.5u
X88 SD0_1 SD0_2.t48 VSS.t159 VSS.t82 nfet_03v3 ad=0.156p pd=1.12u as=0.264p ps=2.08u w=0.6u l=0.5u
X89 VSS SD0_2.t49 SD3_1.t54 VSS.t72 nfet_03v3 ad=0.156p pd=1.12u as=0.156p ps=1.12u w=0.6u l=0.5u
X90 SD2_4 G2_1.t15 VSS.t114 VSS.t113 nfet_03v3 ad=0.156p pd=1.12u as=0.264p ps=2.08u w=0.6u l=0.5u
X91 ITAIL_1 ITAIL_1.t7 SD0_2.t3 VSS.t87 nfet_03v3 ad=0.264p pd=2.08u as=0.156p ps=1.12u w=0.6u l=0.5u
X92 VSS G2_1.t16 SD2_1.t12 VSS.t20 nfet_03v3 ad=0.156p pd=1.12u as=0.156p ps=1.12u w=0.6u l=0.5u
X93 SD2_4 G2_1.t17 VSS.t178 VSS.t113 nfet_03v3 ad=0.156p pd=1.12u as=0.264p ps=2.08u w=0.6u l=0.5u
X94 SD1_1 G1_1.t28 VDD.t21 VDD.t20 pfet_03v3 ad=0.156p pd=1.12u as=0.156p ps=1.12u w=0.6u l=0.5u
X95 VSS SD0_2.t50 SD0_1.t23 VSS.t94 nfet_03v3 ad=0.156p pd=1.12u as=0.156p ps=1.12u w=0.6u l=0.5u
X96 SD1_1 G1_1.t29 VDD.t19 VDD.t18 pfet_03v3 ad=0.156p pd=1.12u as=0.156p ps=1.12u w=0.6u l=0.5u
X97 SD3_1 ITAIL_1.t51 OUT_6.t14 VSS.t86 nfet_03v3 ad=0.156p pd=1.12u as=0.156p ps=1.12u w=0.6u l=0.5u
X98 SD3_1 SD0_2.t51 VSS.t186 VSS.t105 nfet_03v3 ad=0.156p pd=1.12u as=0.156p ps=1.12u w=0.6u l=0.5u
X99 SD0_2 ITAIL_1.t11 ITAIL_1.t12 VSS.t85 nfet_03v3 ad=0.156p pd=1.12u as=0.156p ps=1.12u w=0.6u l=0.5u
X100 VSS SD0_2.t52 SD3_1.t48 VSS.t107 nfet_03v3 ad=0.156p pd=1.12u as=0.156p ps=1.12u w=0.6u l=0.5u
X101 VSS SD0_2.t53 SD3_1.t49 VSS.t106 nfet_03v3 ad=0.264p pd=2.08u as=0.156p ps=1.12u w=0.6u l=0.5u
X102 G1_1 G1_2.t18 G1_2.t19 VDD.t55 pfet_03v3 ad=0.156p pd=1.12u as=0.156p ps=1.12u w=0.6u l=0.5u
X103 G1_2 G1_2.t16 G1_1.t22 VDD.t54 pfet_03v3 ad=0.156p pd=1.12u as=0.156p ps=1.12u w=0.6u l=0.5u
X104 ITAIL_1 ITAIL_1.t5 SD0_2.t1 VSS.t84 nfet_03v3 ad=0.156p pd=1.12u as=0.156p ps=1.12u w=0.6u l=0.5u
X105 VSS G2_1.t18 SD2_3.t3 VSS.t48 nfet_03v3 ad=0.264p pd=2.08u as=0.264p ps=2.08u w=0.6u l=0.5u
X106 SD1_1 G1_2.t28 ITAIL_1.t23 VDD.t53 pfet_03v3 ad=0.156p pd=1.12u as=0.156p ps=1.12u w=0.6u l=0.5u
X107 SD0_1 ITAIL_1.t53 OUT_5.t8 VSS.t83 nfet_03v3 ad=0.156p pd=1.12u as=0.156p ps=1.12u w=0.6u l=0.5u
X108 SD0_1 ITAIL_1.t54 OUT_5.t7 VSS.t82 nfet_03v3 ad=0.156p pd=1.12u as=0.264p ps=2.08u w=0.6u l=0.5u
X109 SD1_1 G1_2.t29 ITAIL_1.t0 VDD.t42 pfet_03v3 ad=0.156p pd=1.12u as=0.156p ps=1.12u w=0.6u l=0.5u
X110 VDD G1_1.t30 SD1_1.t3 VDD.t9 pfet_03v3 ad=0.156p pd=1.12u as=0.156p ps=1.12u w=0.6u l=0.5u
X111 SD2_5 G2_1.t19 VSS.t16 VSS.t15 nfet_03v3 ad=0.156p pd=1.12u as=0.156p ps=1.12u w=0.6u l=0.5u
X112 ITAIL_1 G1_2.t30 SD1_1.t11 VDD.t43 pfet_03v3 ad=0.156p pd=1.12u as=0.156p ps=1.12u w=0.6u l=0.5u
X113 SD2_5 ITAIL.t12 OUT_4.t5 VSS.t108 nfet_03v3 ad=0.156p pd=1.12u as=0.264p ps=2.08u w=0.6u l=0.5u
X114 SD2_3 G2_1.t20 VSS.t9 VSS.t8 nfet_03v3 ad=0.264p pd=2.08u as=0.264p ps=2.08u w=0.6u l=0.5u
X115 SD1_1 G1_1.t31 VDD.t16 VDD.t15 pfet_03v3 ad=0.156p pd=1.12u as=0.264p ps=2.08u w=0.6u l=0.5u
X116 VDD G1_1.t4 G1_1.t5 VDD.t12 pfet_03v3 ad=0.156p pd=1.12u as=0.156p ps=1.12u w=0.6u l=0.5u
X117 OUT_6 ITAIL_1.t55 SD3_1.t34 VSS.t81 nfet_03v3 ad=0.156p pd=1.12u as=0.156p ps=1.12u w=0.6u l=0.5u
X118 VSS SD0_2.t12 SD0_2.t13 VSS.t84 nfet_03v3 ad=0.156p pd=1.12u as=0.156p ps=1.12u w=0.6u l=0.5u
X119 OUT_5 ITAIL_1.t56 SD0_1.t2 VSS.t63 nfet_03v3 ad=0.156p pd=1.12u as=0.156p ps=1.12u w=0.6u l=0.5u
X120 SD0_1 SD0_2.t54 VSS.t154 VSS.t83 nfet_03v3 ad=0.156p pd=1.12u as=0.156p ps=1.12u w=0.6u l=0.5u
X121 VDD G1_1.t32 SD1_1.t1 VDD.t7 pfet_03v3 ad=0.156p pd=1.12u as=0.156p ps=1.12u w=0.6u l=0.5u
X122 VSS SD0_2.t55 SD0_1.t21 VSS.t77 nfet_03v3 ad=0.156p pd=1.12u as=0.156p ps=1.12u w=0.6u l=0.5u
X123 G1_1 G1_1.t2 VDD.t3 VDD.t2 pfet_03v3 ad=0.156p pd=1.12u as=0.264p ps=2.08u w=0.6u l=0.5u
X124 VSS SD0_2.t56 SD3_1.t8 VSS.t53 nfet_03v3 ad=0.156p pd=1.12u as=0.156p ps=1.12u w=0.6u l=0.5u
X125 SD0_2 ITAIL_1.t9 ITAIL_1.t10 VSS.t40 nfet_03v3 ad=0.156p pd=1.12u as=0.156p ps=1.12u w=0.6u l=0.5u
X126 SD2_1 G2_1.t21 VSS.t137 VSS.t136 nfet_03v3 ad=0.156p pd=1.12u as=0.156p ps=1.12u w=0.6u l=0.5u
X127 SD1_1 G1_2.t31 ITAIL_1.t2 VDD.t44 pfet_03v3 ad=0.156p pd=1.12u as=0.156p ps=1.12u w=0.6u l=0.5u
X128 SD3_1 SD0_2.t57 VSS.t57 VSS.t56 nfet_03v3 ad=0.156p pd=1.12u as=0.156p ps=1.12u w=0.6u l=0.5u
X129 G1_1 G1_2.t14 G1_2.t15 VDD.t41 pfet_03v3 ad=0.156p pd=1.12u as=0.156p ps=1.12u w=0.6u l=0.5u
X130 SD3_1 ITAIL_1.t57 OUT_6.t12 VSS.t80 nfet_03v3 ad=0.156p pd=1.12u as=0.156p ps=1.12u w=0.6u l=0.5u
X131 SD1_1 G1_2.t32 ITAIL_1.t3 VDD.t47 pfet_03v3 ad=0.156p pd=1.12u as=0.156p ps=1.12u w=0.6u l=0.5u
X132 SD3_1 SD0_2.t58 VSS.t59 VSS.t58 nfet_03v3 ad=0.156p pd=1.12u as=0.156p ps=1.12u w=0.6u l=0.5u
X133 G1_1 G1_1.t0 VDD.t6 VDD.t5 pfet_03v3 ad=0.156p pd=1.12u as=0.156p ps=1.12u w=0.6u l=0.5u
X134 VSS SD0_2.t59 SD3_1.t11 VSS.t60 nfet_03v3 ad=0.156p pd=1.12u as=0.156p ps=1.12u w=0.6u l=0.5u
X135 VSS G2_1.t22 SD2_5.t8 VSS.t5 nfet_03v3 ad=0.156p pd=1.12u as=0.156p ps=1.12u w=0.6u l=0.5u
X136 G1_2 ITAIL.t13 SD2_1.t6 VSS.t109 nfet_03v3 ad=0.264p pd=2.08u as=0.156p ps=1.12u w=0.6u l=0.5u
X137 G1_2 ITAIL.t14 SD2_1.t5 VSS.t109 nfet_03v3 ad=0.264p pd=2.08u as=0.156p ps=1.12u w=0.6u l=0.5u
X138 OUT_6 ITAIL_1.t58 SD3_1.t33 VSS.t45 nfet_03v3 ad=0.156p pd=1.12u as=0.156p ps=1.12u w=0.6u l=0.5u
X139 OUT_6 ITAIL_1.t59 SD3_1.t32 VSS.t79 nfet_03v3 ad=0.156p pd=1.12u as=0.156p ps=1.12u w=0.6u l=0.5u
X140 VSS SD0_2.t60 SD0_1.t20 VSS.t63 nfet_03v3 ad=0.156p pd=1.12u as=0.156p ps=1.12u w=0.6u l=0.5u
X141 SD3_1 ITAIL_1.t60 OUT_6.t9 VSS.t78 nfet_03v3 ad=0.156p pd=1.12u as=0.264p ps=2.08u w=0.6u l=0.5u
X142 OUT_5 ITAIL_1.t61 SD0_1.t1 VSS.t77 nfet_03v3 ad=0.156p pd=1.12u as=0.156p ps=1.12u w=0.6u l=0.5u
X143 SD2_1 ITAIL.t15 G1_2.t1 VSS.t145 nfet_03v3 ad=0.156p pd=1.12u as=0.264p ps=2.08u w=0.6u l=0.5u
X144 SD3_1 ITAIL_1.t62 OUT_6.t8 VSS.t0 nfet_03v3 ad=0.156p pd=1.12u as=0.156p ps=1.12u w=0.6u l=0.5u
X145 SD0_1 SD0_2.t61 VSS.t67 VSS.t66 nfet_03v3 ad=0.156p pd=1.12u as=0.264p ps=2.08u w=0.6u l=0.5u
X146 SD3_1 SD0_2.t62 VSS.t69 VSS.t68 nfet_03v3 ad=0.156p pd=1.12u as=0.156p ps=1.12u w=0.6u l=0.5u
X147 VSS G2_1.t1 G2_1.t2 VSS.t25 nfet_03v3 ad=0.264p pd=2.08u as=0.156p ps=1.12u w=0.6u l=0.5u
X148 OUT_4 ITAIL.t16 SD2_5.t1 VSS.t128 nfet_03v3 ad=0.264p pd=2.08u as=0.156p ps=1.12u w=0.6u l=0.5u
X149 OUT_6 ITAIL_1.t63 SD3_1.t31 VSS.t2 nfet_03v3 ad=0.156p pd=1.12u as=0.156p ps=1.12u w=0.6u l=0.5u
X150 SD0_2 SD0_2.t10 VSS.t41 VSS.t40 nfet_03v3 ad=0.156p pd=1.12u as=0.156p ps=1.12u w=0.6u l=0.5u
X151 VSS SD0_2.t64 SD3_1.t62 VSS.t98 nfet_03v3 ad=0.156p pd=1.12u as=0.156p ps=1.12u w=0.6u l=0.5u
X152 SD2_3 ITAIL.t17 OUT_2.t0 VSS.t8 nfet_03v3 ad=0.264p pd=2.08u as=0.264p ps=2.08u w=0.6u l=0.5u
X153 ITAIL_1 G1_2.t33 SD1_1.t8 VDD.t48 pfet_03v3 ad=0.156p pd=1.12u as=0.156p ps=1.12u w=0.6u l=0.5u
X154 G1_2 ITAIL.t18 SD2_1.t4 VSS.t115 nfet_03v3 ad=0.264p pd=2.08u as=0.156p ps=1.12u w=0.6u l=0.5u
X155 SD2_5 ITAIL.t19 OUT_4.t3 VSS.t36 nfet_03v3 ad=0.156p pd=1.12u as=0.264p ps=2.08u w=0.6u l=0.5u
X156 SD2_5 ITAIL.t20 OUT_4.t2 VSS.t108 nfet_03v3 ad=0.156p pd=1.12u as=0.264p ps=2.08u w=0.6u l=0.5u
X157 VDD G1_1.t35 SD1_1.t0 VDD.t0 pfet_03v3 ad=0.264p pd=2.08u as=0.156p ps=1.12u w=0.6u l=0.5u
X158 G1_2 G1_2.t12 G1_1.t16 VDD.t40 pfet_03v3 ad=0.156p pd=1.12u as=0.156p ps=1.12u w=0.6u l=0.5u
X159 VSS SD0_2.t65 SD0_1.t18 VSS.t74 nfet_03v3 ad=0.156p pd=1.12u as=0.156p ps=1.12u w=0.6u l=0.5u
X160 SD0_1 ITAIL_1.t64 OUT_5.t4 VSS.t66 nfet_03v3 ad=0.156p pd=1.12u as=0.264p ps=2.08u w=0.6u l=0.5u
X161 SD0_1 ITAIL_1.t65 OUT_5.t3 VSS.t76 nfet_03v3 ad=0.156p pd=1.12u as=0.156p ps=1.12u w=0.6u l=0.5u
X162 SD3_1 SD0_2.t66 VSS.t200 VSS.t96 nfet_03v3 ad=0.156p pd=1.12u as=0.156p ps=1.12u w=0.6u l=0.5u
X163 OUT_4 ITAIL.t21 SD2_5.t0 VSS.t128 nfet_03v3 ad=0.264p pd=2.08u as=0.156p ps=1.12u w=0.6u l=0.5u
X164 G1_1 G1_2.t10 G1_2.t11 VDD.t46 pfet_03v3 ad=0.156p pd=1.12u as=0.156p ps=1.12u w=0.6u l=0.5u
X165 SD3_1 ITAIL_1.t66 OUT_6.t6 VSS.t30 nfet_03v3 ad=0.156p pd=1.12u as=0.156p ps=1.12u w=0.6u l=0.5u
X166 SD0_1 SD0_2.t67 VSS.t171 VSS.t71 nfet_03v3 ad=0.156p pd=1.12u as=0.156p ps=1.12u w=0.6u l=0.5u
X167 SD2_4 ITAIL.t22 OUT_3.t1 VSS.t35 nfet_03v3 ad=0.156p pd=1.12u as=0.264p ps=2.08u w=0.6u l=0.5u
X168 OUT_6 ITAIL_1.t67 SD3_1.t30 VSS.t10 nfet_03v3 ad=0.156p pd=1.12u as=0.156p ps=1.12u w=0.6u l=0.5u
X169 OUT_6 ITAIL_1.t68 SD3_1.t29 VSS.t75 nfet_03v3 ad=0.156p pd=1.12u as=0.156p ps=1.12u w=0.6u l=0.5u
X170 OUT_5 ITAIL_1.t69 SD0_1.t0 VSS.t74 nfet_03v3 ad=0.156p pd=1.12u as=0.156p ps=1.12u w=0.6u l=0.5u
X171 VSS SD0_2.t68 SD3_1.t56 VSS.t92 nfet_03v3 ad=0.156p pd=1.12u as=0.156p ps=1.12u w=0.6u l=0.5u
X172 SD3_1 ITAIL_1.t70 OUT_6.t3 VSS.t13 nfet_03v3 ad=0.156p pd=1.12u as=0.156p ps=1.12u w=0.6u l=0.5u
X173 SD2_5 ITAIL.t23 OUT_4.t0 VSS.t36 nfet_03v3 ad=0.156p pd=1.12u as=0.264p ps=2.08u w=0.6u l=0.5u
X174 SD3_1 SD0_2.t69 VSS.t179 VSS.t88 nfet_03v3 ad=0.156p pd=1.12u as=0.156p ps=1.12u w=0.6u l=0.5u
X175 VSS SD0_2.t70 SD3_1.t58 VSS.t89 nfet_03v3 ad=0.156p pd=1.12u as=0.156p ps=1.12u w=0.6u l=0.5u
X176 SD3_1 SD0_2.t71 VSS.t187 VSS.t93 nfet_03v3 ad=0.156p pd=1.12u as=0.156p ps=1.12u w=0.6u l=0.5u
X177 VSS SD0_2.t8 SD0_2.t9 VSS.t37 nfet_03v3 ad=0.156p pd=1.12u as=0.156p ps=1.12u w=0.6u l=0.5u
X178 SD3_1 ITAIL_1.t71 OUT_6.t2 VSS.t73 nfet_03v3 ad=0.156p pd=1.12u as=0.156p ps=1.12u w=0.6u l=0.5u
X179 OUT_6 ITAIL_1.t72 SD3_1.t28 VSS.t32 nfet_03v3 ad=0.156p pd=1.12u as=0.156p ps=1.12u w=0.6u l=0.5u
X180 VSS G2_1.t23 SD2_1.t10 VSS.t116 nfet_03v3 ad=0.156p pd=1.12u as=0.156p ps=1.12u w=0.6u l=0.5u
X181 OUT_6 ITAIL_1.t73 SD3_1.t27 VSS.t72 nfet_03v3 ad=0.156p pd=1.12u as=0.156p ps=1.12u w=0.6u l=0.5u
X182 SD0_1 SD0_2.t72 VSS.t188 VSS.t76 nfet_03v3 ad=0.156p pd=1.12u as=0.156p ps=1.12u w=0.6u l=0.5u
X183 OUT_3 ITAIL.t24 SD2_4.t2 VSS.t52 nfet_03v3 ad=0.264p pd=2.08u as=0.156p ps=1.12u w=0.6u l=0.5u
X184 VSS G2_1.t24 SD2_1.t9 VSS.t116 nfet_03v3 ad=0.156p pd=1.12u as=0.156p ps=1.12u w=0.6u l=0.5u
X185 VSS SD0_2.t73 SD3_1.t50 VSS.t91 nfet_03v3 ad=0.156p pd=1.12u as=0.156p ps=1.12u w=0.6u l=0.5u
X186 SD3_1 SD0_2.t74 VSS.t135 VSS.t90 nfet_03v3 ad=0.156p pd=1.12u as=0.156p ps=1.12u w=0.6u l=0.5u
X187 G1_2 G1_2.t8 G1_1.t18 VDD.t45 pfet_03v3 ad=0.156p pd=1.12u as=0.156p ps=1.12u w=0.6u l=0.5u
X188 SD3_1 SD0_2.t75 VSS.t29 VSS.t28 nfet_03v3 ad=0.156p pd=1.12u as=0.156p ps=1.12u w=0.6u l=0.5u
X189 SD2_1 G2_1.t25 VSS.t146 VSS.t136 nfet_03v3 ad=0.156p pd=1.12u as=0.156p ps=1.12u w=0.6u l=0.5u
X190 SD0_1 ITAIL_1.t74 OUT_5.t1 VSS.t71 nfet_03v3 ad=0.156p pd=1.12u as=0.156p ps=1.12u w=0.6u l=0.5u
X191 SD0_1 ITAIL_1.t75 OUT_5.t0 VSS.t70 nfet_03v3 ad=0.156p pd=1.12u as=0.156p ps=1.12u w=0.6u l=0.5u
R0 ITAIL_1.n86 ITAIL_1.n85 132.385
R1 ITAIL_1.n80 ITAIL_1.n79 131.189
R2 ITAIL_1.n2 ITAIL_1.t25 117.838
R3 ITAIL_1.n59 ITAIL_1.n58 108.54
R4 ITAIL_1.n64 ITAIL_1.n63 106.138
R5 ITAIL_1.n53 ITAIL_1.n52 105.632
R6 ITAIL_1.n16 ITAIL_1.n15 105.126
R7 ITAIL_1.n4 ITAIL_1.n3 103.823
R8 ITAIL_1.n6 ITAIL_1.n5 103.823
R9 ITAIL_1.n8 ITAIL_1.n7 103.823
R10 ITAIL_1.n10 ITAIL_1.n9 103.823
R11 ITAIL_1.n12 ITAIL_1.n11 103.823
R12 ITAIL_1.n14 ITAIL_1.n13 103.823
R13 ITAIL_1.n39 ITAIL_1.n38 103.823
R14 ITAIL_1.n78 ITAIL_1.n77 103.823
R15 ITAIL_1.n33 ITAIL_1.n32 103.823
R16 ITAIL_1.n31 ITAIL_1.n30 103.823
R17 ITAIL_1.n29 ITAIL_1.n28 103.823
R18 ITAIL_1.n27 ITAIL_1.n26 103.823
R19 ITAIL_1.n25 ITAIL_1.n24 103.823
R20 ITAIL_1.n46 ITAIL_1.n45 103.823
R21 ITAIL_1.n55 ITAIL_1.n54 103.823
R22 ITAIL_1.n71 ITAIL_1.n70 103.823
R23 ITAIL_1.n69 ITAIL_1.n68 103.823
R24 ITAIL_1.n72 ITAIL_1.n71 36.3254
R25 ITAIL_1.n77 ITAIL_1.t53 34.7404
R26 ITAIL_1.n57 ITAIL_1.n55 33.2561
R27 ITAIL_1.n47 ITAIL_1.n46 22.0563
R28 ITAIL_1.n40 ITAIL_1.n39 21.6519
R29 ITAIL_1.n3 ITAIL_1.n2 21.0894
R30 ITAIL_1.n5 ITAIL_1.n4 21.0894
R31 ITAIL_1.n7 ITAIL_1.n6 21.0894
R32 ITAIL_1.n9 ITAIL_1.n8 21.0894
R33 ITAIL_1.n11 ITAIL_1.n10 21.0894
R34 ITAIL_1.n13 ITAIL_1.n12 21.0894
R35 ITAIL_1.n15 ITAIL_1.n14 21.0894
R36 ITAIL_1.n79 ITAIL_1.n78 21.0894
R37 ITAIL_1.n34 ITAIL_1.n33 21.0894
R38 ITAIL_1.n32 ITAIL_1.n31 21.0894
R39 ITAIL_1.n30 ITAIL_1.n29 21.0894
R40 ITAIL_1.n28 ITAIL_1.n27 21.0894
R41 ITAIL_1.n26 ITAIL_1.n25 21.0894
R42 ITAIL_1.n24 ITAIL_1.n23 21.0894
R43 ITAIL_1.n45 ITAIL_1.n44 21.0894
R44 ITAIL_1.n54 ITAIL_1.n53 21.0894
R45 ITAIL_1.n70 ITAIL_1.n69 21.0894
R46 ITAIL_1.n2 ITAIL_1.t71 14.0165
R47 ITAIL_1.n3 ITAIL_1.t32 14.0165
R48 ITAIL_1.n4 ITAIL_1.t48 14.0165
R49 ITAIL_1.n5 ITAIL_1.t55 14.0165
R50 ITAIL_1.n6 ITAIL_1.t66 14.0165
R51 ITAIL_1.n7 ITAIL_1.t30 14.0165
R52 ITAIL_1.n8 ITAIL_1.t46 14.0165
R53 ITAIL_1.n9 ITAIL_1.t73 14.0165
R54 ITAIL_1.n10 ITAIL_1.t43 14.0165
R55 ITAIL_1.n11 ITAIL_1.t68 14.0165
R56 ITAIL_1.n12 ITAIL_1.t57 14.0165
R57 ITAIL_1.n13 ITAIL_1.t45 14.0165
R58 ITAIL_1.n14 ITAIL_1.t51 14.0165
R59 ITAIL_1.n15 ITAIL_1.t24 14.0165
R60 ITAIL_1.n33 ITAIL_1.t37 14.0165
R61 ITAIL_1.n32 ITAIL_1.t72 14.0165
R62 ITAIL_1.n31 ITAIL_1.t49 14.0165
R63 ITAIL_1.n30 ITAIL_1.t58 14.0165
R64 ITAIL_1.n29 ITAIL_1.t70 14.0165
R65 ITAIL_1.n28 ITAIL_1.t44 14.0165
R66 ITAIL_1.n27 ITAIL_1.t62 14.0165
R67 ITAIL_1.n26 ITAIL_1.t47 14.0165
R68 ITAIL_1.n25 ITAIL_1.t33 14.0165
R69 ITAIL_1.n24 ITAIL_1.t67 14.0165
R70 ITAIL_1.n23 ITAIL_1.t40 14.0165
R71 ITAIL_1.n44 ITAIL_1.t59 14.0165
R72 ITAIL_1.n45 ITAIL_1.t35 14.0165
R73 ITAIL_1.n46 ITAIL_1.t38 14.0165
R74 ITAIL_1.n53 ITAIL_1.t41 13.7245
R75 ITAIL_1.n54 ITAIL_1.t69 13.7245
R76 ITAIL_1.n55 ITAIL_1.t64 13.7245
R77 ITAIL_1.n71 ITAIL_1.t34 13.7245
R78 ITAIL_1.n70 ITAIL_1.t74 13.7245
R79 ITAIL_1.n69 ITAIL_1.t61 13.7245
R80 ITAIL_1.n39 ITAIL_1.t29 13.6515
R81 ITAIL_1.n38 ITAIL_1.t42 13.6515
R82 ITAIL_1.n85 ITAIL_1.t65 13.6515
R83 ITAIL_1.n77 ITAIL_1.t28 13.6515
R84 ITAIL_1.n78 ITAIL_1.t75 13.6515
R85 ITAIL_1.n79 ITAIL_1.t36 13.6515
R86 ITAIL_1.n40 ITAIL_1.t56 13.0378
R87 ITAIL_1.n87 ITAIL_1.t15 12.6295
R88 ITAIL_1.n86 ITAIL_1.t5 12.6295
R89 ITAIL_1.n0 ITAIL_1.t54 12.6295
R90 ITAIL_1.n59 ITAIL_1.t11 12.5565
R91 ITAIL_1.n63 ITAIL_1.t19 12.5565
R92 ITAIL_1.n81 ITAIL_1.t17 12.3375
R93 ITAIL_1.n80 ITAIL_1.t9 12.3375
R94 ITAIL_1.n64 ITAIL_1.t13 12.1915
R95 ITAIL_1.n52 ITAIL_1.t39 10.8639
R96 ITAIL_1.n48 ITAIL_1.t27 10.4542
R97 ITAIL_1.n22 ITAIL_1.t63 10.4093
R98 ITAIL_1.n57 ITAIL_1.n56 10.1427
R99 ITAIL_1.n18 ITAIL_1.t60 9.3445
R100 ITAIL_1.n58 ITAIL_1.t7 7.7385
R101 ITAIL_1.n62 ITAIL_1.n61 7.45611
R102 ITAIL_1.n106 ITAIL_1.n105 7.24501
R103 ITAIL_1.n58 ITAIL_1.n57 6.3515
R104 ITAIL_1.n41 ITAIL_1.t14 6.33405
R105 ITAIL_1.n52 ITAIL_1.n51 6.07308
R106 ITAIL_1.n88 ITAIL_1.n86 4.63315
R107 ITAIL_1.n73 ITAIL_1.n72 4.5005
R108 ITAIL_1.n62 ITAIL_1.n59 4.33237
R109 ITAIL_1.n82 ITAIL_1.n80 4.19412
R110 ITAIL_1.n88 ITAIL_1.n87 4.03194
R111 ITAIL_1.n63 ITAIL_1.n62 4.01149
R112 ITAIL_1.n82 ITAIL_1.n81 3.88348
R113 ITAIL_1.n105 ITAIL_1.n102 3.67213
R114 ITAIL_1.n96 ITAIL_1.n40 3.64368
R115 ITAIL_1.n49 ITAIL_1.n47 3.54502
R116 ITAIL_1.n49 ITAIL_1.n48 3.51942
R117 ITAIL_1.n92 ITAIL_1.n91 3.43549
R118 ITAIL_1.n83 ITAIL_1.n76 3.41085
R119 ITAIL_1.n37 ITAIL_1.n20 3.14528
R120 ITAIL_1.n102 ITAIL_1.t3 3.03383
R121 ITAIL_1.n102 ITAIL_1.n101 3.03383
R122 ITAIL_1.n104 ITAIL_1.t0 3.03383
R123 ITAIL_1.n104 ITAIL_1.n103 3.03383
R124 ITAIL_1.n100 ITAIL_1.t23 3.03383
R125 ITAIL_1.n100 ITAIL_1.n99 3.03383
R126 ITAIL_1.n98 ITAIL_1.t2 3.03383
R127 ITAIL_1.n98 ITAIL_1.n97 3.03383
R128 ITAIL_1.n20 ITAIL_1.n19 2.88564
R129 ITAIL_1.n51 ITAIL_1.n50 2.88451
R130 ITAIL_1.n111 ITAIL_1.n1 2.8805
R131 ITAIL_1.n106 ITAIL_1.n100 2.82159
R132 ITAIL_1.n107 ITAIL_1.n98 2.82159
R133 ITAIL_1.n105 ITAIL_1.n104 2.81922
R134 ITAIL_1.n61 ITAIL_1.t12 2.7305
R135 ITAIL_1.n61 ITAIL_1.n60 2.7305
R136 ITAIL_1.n91 ITAIL_1.t16 2.7305
R137 ITAIL_1.n91 ITAIL_1.n90 2.7305
R138 ITAIL_1.n76 ITAIL_1.t10 2.7305
R139 ITAIL_1.n76 ITAIL_1.n75 2.7305
R140 ITAIL_1.n19 ITAIL_1.n18 2.3365
R141 ITAIL_1.n37 ITAIL_1.n36 2.25242
R142 ITAIL_1.n93 ITAIL_1.n92 2.24675
R143 ITAIL_1.n17 ITAIL_1.n16 2.23635
R144 ITAIL_1.n36 ITAIL_1.n35 2.12238
R145 ITAIL_1.n83 ITAIL_1.n82 2.11998
R146 ITAIL_1.n35 ITAIL_1.n34 2.1175
R147 ITAIL_1.n66 ITAIL_1.n65 1.90845
R148 ITAIL_1.n108 ITAIL_1.n107 1.44061
R149 ITAIL_1.n84 ITAIL_1.n83 1.3863
R150 ITAIL_1.n89 ITAIL_1.n88 1.32705
R151 ITAIL_1.n35 ITAIL_1.n22 1.21129
R152 ITAIL_1.n74 ITAIL_1.n73 1.13048
R153 ITAIL_1.n96 ITAIL_1.n95 1.01644
R154 ITAIL_1.n111 ITAIL_1.n110 0.89823
R155 ITAIL_1.n65 ITAIL_1.n64 0.747091
R156 ITAIL_1.n109 ITAIL_1.n37 0.710424
R157 ITAIL_1.n1 ITAIL_1.n0 0.6575
R158 ITAIL_1.n72 ITAIL_1.n66 0.581182
R159 ITAIL_1.n107 ITAIL_1.n106 0.525071
R160 ITAIL_1.n109 ITAIL_1.n108 0.400171
R161 ITAIL_1.n68 ITAIL_1.n67 0.3655
R162 ITAIL_1.n95 ITAIL_1.n74 0.286359
R163 ITAIL_1.n95 ITAIL_1.n94 0.166826
R164 ITAIL_1.n108 ITAIL_1.n96 0.0964132
R165 ITAIL_1.n67 ITAIL_1.n1 0.0735
R166 ITAIL_1.n110 ITAIL_1.n109 0.0336328
R167 ITAIL_1.n42 ITAIL_1.n41 0.0250455
R168 ITAIL_1.n92 ITAIL_1.n89 0.0151731
R169 ITAIL_1.n94 ITAIL_1.n93 0.00905634
R170 ITAIL_1.n36 ITAIL_1.n21 0.00457413
R171 ITAIL_1 ITAIL_1.n111 0.00375301
R172 ITAIL_1.n73 ITAIL_1.n43 0.00356818
R173 ITAIL_1.n43 ITAIL_1.n42 0.00356818
R174 ITAIL_1.n51 ITAIL_1.n49 0.0025
R175 ITAIL_1.n20 ITAIL_1.n17 0.0015
R176 ITAIL_1.n93 ITAIL_1.n84 0.000816901
R177 SD3_1.n97 SD3_1.n7 3.48971
R178 SD3_1.n109 SD3_1.n3 3.48281
R179 SD3_1.n56 SD3_1.n55 3.07792
R180 SD3_1.n85 SD3_1.n27 3.07726
R181 SD3_1.n88 SD3_1.n22 3.07632
R182 SD3_1.n121 SD3_1.n118 3.07564
R183 SD3_1.n76 SD3_1.n42 3.0732
R184 SD3_1.n82 SD3_1.n32 3.07118
R185 SD3_1.n79 SD3_1.n37 3.06982
R186 SD3_1.n70 SD3_1.n44 3.06866
R187 SD3_1.n91 SD3_1.n17 3.06533
R188 SD3_1.n64 SD3_1.n49 3.06484
R189 SD3_1 SD3_1.n1 3.06384
R190 SD3_1.n58 SD3_1.n51 3.05987
R191 SD3_1.n100 SD3_1.n5 3.05915
R192 SD3_1.n94 SD3_1.n12 3.05307
R193 SD3_1.n12 SD3_1.n11 2.90211
R194 SD3_1.n102 SD3_1.n101 2.90208
R195 SD3_1.n120 SD3_1.t1 2.7305
R196 SD3_1.n120 SD3_1.n119 2.7305
R197 SD3_1.n118 SD3_1.t31 2.7305
R198 SD3_1.n118 SD3_1.n117 2.7305
R199 SD3_1.n106 SD3_1.t6 2.7305
R200 SD3_1.n106 SD3_1.n105 2.7305
R201 SD3_1.n9 SD3_1.t7 2.7305
R202 SD3_1.n9 SD3_1.n8 2.7305
R203 SD3_1.n14 SD3_1.t29 2.7305
R204 SD3_1.n14 SD3_1.n13 2.7305
R205 SD3_1.n19 SD3_1.t56 2.7305
R206 SD3_1.n19 SD3_1.n18 2.7305
R207 SD3_1.n24 SD3_1.t27 2.7305
R208 SD3_1.n24 SD3_1.n23 2.7305
R209 SD3_1.n29 SD3_1.t58 2.7305
R210 SD3_1.n29 SD3_1.n28 2.7305
R211 SD3_1.n34 SD3_1.t40 2.7305
R212 SD3_1.n34 SD3_1.n33 2.7305
R213 SD3_1.n39 SD3_1.t2 2.7305
R214 SD3_1.n39 SD3_1.n38 2.7305
R215 SD3_1.n73 SD3_1.t34 2.7305
R216 SD3_1.n73 SD3_1.n72 2.7305
R217 SD3_1.n46 SD3_1.t46 2.7305
R218 SD3_1.n46 SD3_1.n45 2.7305
R219 SD3_1.n66 SD3_1.t39 2.7305
R220 SD3_1.n66 SD3_1.n65 2.7305
R221 SD3_1.n60 SD3_1.t62 2.7305
R222 SD3_1.n60 SD3_1.n59 2.7305
R223 SD3_1.n53 SD3_1.t41 2.7305
R224 SD3_1.n53 SD3_1.n52 2.7305
R225 SD3_1.n55 SD3_1.t49 2.7305
R226 SD3_1.n55 SD3_1.n54 2.7305
R227 SD3_1.n51 SD3_1.t38 2.7305
R228 SD3_1.n51 SD3_1.n50 2.7305
R229 SD3_1.n49 SD3_1.t11 2.7305
R230 SD3_1.n49 SD3_1.n48 2.7305
R231 SD3_1.n44 SD3_1.t32 2.7305
R232 SD3_1.n44 SD3_1.n43 2.7305
R233 SD3_1.n42 SD3_1.t52 2.7305
R234 SD3_1.n42 SD3_1.n41 2.7305
R235 SD3_1.n37 SD3_1.t30 2.7305
R236 SD3_1.n37 SD3_1.n36 2.7305
R237 SD3_1.n32 SD3_1.t8 2.7305
R238 SD3_1.n32 SD3_1.n31 2.7305
R239 SD3_1.n27 SD3_1.t35 2.7305
R240 SD3_1.n27 SD3_1.n26 2.7305
R241 SD3_1.n22 SD3_1.t54 2.7305
R242 SD3_1.n22 SD3_1.n21 2.7305
R243 SD3_1.n17 SD3_1.t37 2.7305
R244 SD3_1.n17 SD3_1.n16 2.7305
R245 SD3_1.n7 SD3_1.t33 2.7305
R246 SD3_1.n7 SD3_1.n6 2.7305
R247 SD3_1.n5 SD3_1.t50 2.7305
R248 SD3_1.n5 SD3_1.n4 2.7305
R249 SD3_1.n3 SD3_1.t28 2.7305
R250 SD3_1.n3 SD3_1.n2 2.7305
R251 SD3_1.n1 SD3_1.t48 2.7305
R252 SD3_1.n1 SD3_1.n0 2.7305
R253 SD3_1.n113 SD3_1.t42 2.7305
R254 SD3_1.n113 SD3_1.n112 2.7305
R255 SD3_1.n56 SD3_1.n53 2.5571
R256 SD3_1.n121 SD3_1.n120 2.55706
R257 SD3_1.n102 SD3_1.t36 2.40707
R258 SD3_1.n12 SD3_1.t61 2.40704
R259 SD3_1.n108 SD3_1.n107 2.24937
R260 SD3_1.n104 SD3_1.n103 2.24505
R261 SD3_1.n62 SD3_1.n61 2.24478
R262 SD3_1.n68 SD3_1.n67 2.24478
R263 SD3_1.n75 SD3_1.n74 1.49476
R264 SD3_1.n87 SD3_1.n25 1.49463
R265 SD3_1.n116 SD3_1.n115 1.49463
R266 SD3_1.n81 SD3_1.n35 1.49463
R267 SD3_1.n90 SD3_1.n20 1.49463
R268 SD3_1.n69 SD3_1.n47 1.49439
R269 SD3_1.n84 SD3_1.n30 1.49439
R270 SD3_1.n78 SD3_1.n40 1.49439
R271 SD3_1.n93 SD3_1.n15 1.49439
R272 SD3_1.n96 SD3_1.n10 1.49439
R273 SD3_1.n40 SD3_1.n39 1.43788
R274 SD3_1.n74 SD3_1.n73 1.43788
R275 SD3_1.n10 SD3_1.n9 1.43741
R276 SD3_1.n25 SD3_1.n24 1.43741
R277 SD3_1.n30 SD3_1.n29 1.43741
R278 SD3_1.n47 SD3_1.n46 1.43741
R279 SD3_1.n20 SD3_1.n19 1.43705
R280 SD3_1.n107 SD3_1.n106 1.43694
R281 SD3_1.n35 SD3_1.n34 1.43694
R282 SD3_1.n67 SD3_1.n66 1.43694
R283 SD3_1.n15 SD3_1.n14 1.43673
R284 SD3_1.n61 SD3_1.n60 1.43673
R285 SD3_1.n114 SD3_1.n113 1.43607
R286 SD3_1.n103 SD3_1.n102 1.01023
R287 SD3_1.n108 SD3_1.n104 0.593824
R288 SD3_1.n57 SD3_1.n56 0.593282
R289 SD3_1.n69 SD3_1.n68 0.586829
R290 SD3_1.n99 SD3_1.n98 0.583544
R291 SD3_1.n63 SD3_1.n62 0.581823
R292 SD3_1.n78 SD3_1.n77 0.579925
R293 SD3_1.n122 SD3_1.n121 0.577695
R294 SD3_1.n93 SD3_1.n92 0.577272
R295 SD3_1.n84 SD3_1.n83 0.576023
R296 SD3_1.n90 SD3_1.n89 0.575664
R297 SD3_1.n96 SD3_1.n95 0.575142
R298 SD3_1.n81 SD3_1.n80 0.573011
R299 SD3_1.n87 SD3_1.n86 0.572285
R300 SD3_1.n116 SD3_1.n110 0.571741
R301 SD3_1.n75 SD3_1.n71 0.569825
R302 SD3_1.n71 SD3_1.n70 0.0254398
R303 SD3_1.n92 SD3_1.n91 0.0254398
R304 SD3_1 SD3_1.n122 0.0243554
R305 SD3_1.n80 SD3_1.n79 0.0232711
R306 SD3_1.n98 SD3_1.n97 0.0232711
R307 SD3_1.n110 SD3_1.n109 0.0232711