* NGSPICE file created from LSBs_magic_TG_flat.ext - technology: gf180mcuC

.subckt pex_LSBs_magic_TG VDD VSS B1 B2 B3 B4 B5 B6 ITAIL OUT+ OUT- OUT1 OUT2 OUT3 OUT4 OUT5 OUT6 SEL_L C32_D C32_U
X0 TG_0.IN TG_0.IN TG_0.IN VSS.t179 nfet_03v3 ad=64.3p pd=0.44m as=0.156p ps=1.12u w=0.6u l=0.5u
X1 OUT+ SEL_L.t0 TG_0.IN VSS.t19 nfet_03v3 ad=0.52p pd=2.52u as=0.52p ps=2.52u w=2u l=0.28u
X2 Balance_Inverter_5.Inverter_0.OUT B6.t0 VDD.t208 VDD.t207 pfet_03v3 ad=0.22p pd=1.88u as=0.22p ps=1.88u w=0.5u l=0.28u
X3 TG_1.IN a_n2280_5855.t12 OUT-.t59 VDD.t279 pfet_03v3 ad=0.52p pd=2.52u as=0.52p ps=2.52u w=2u l=0.28u
X4 SD3_1 SDn_2.t24 VSS.t508 VSS.t15 nfet_03v3 ad=0.156p pd=1.12u as=0.156p ps=1.12u w=0.6u l=0.5u
X5 TG_1.IN.t235 b6.t2 TG_1.IN.t235 VSS.t3 nfet_03v3 ad=0 pd=0 as=0.156p ps=1.12u w=0.6u l=0.5u
X6 TG_0.IN TG_0.IN TG_0.IN VSS.t363 nfet_03v3 ad=94.8f pd=0.92u as=0 ps=0 w=0.3u l=0.5u
X7 OUT+ SEL_L.t1 TG_0.IN VSS.t428 nfet_03v3 ad=0.52p pd=2.52u as=0.52p ps=2.52u w=2u l=0.28u
X8 OUT6 IT.t24 SD3_1.t44 VSS.t310 nfet_03v3 ad=0.156p pd=1.12u as=0.156p ps=1.12u w=0.6u l=0.5u
X9 TG_0.IN b6b.t2 TG_0.IN VSS.t84 nfet_03v3 ad=0 pd=0 as=0.156p ps=1.12u w=0.6u l=0.5u
X10 TG_0.IN b2.t2 OUT2.t5 VSS.t153 nfet_03v3 ad=0.156p pd=1.12u as=0.156p ps=1.12u w=0.6u l=0.5u
X11 TG_0.IN TG_0.IN TG_0.IN VSS.t172 nfet_03v3 ad=0 pd=0 as=0.264p ps=2.08u w=0.6u l=0.5u
X12 OUT+ a_n2265_3941.t12 TG_0.IN VDD.t301 pfet_03v3 ad=0.52p pd=2.52u as=0.52p ps=2.52u w=2u l=0.28u
X13 SD3_1 IT.t25 OUT6.t40 VSS.t311 nfet_03v3 ad=0.156p pd=1.12u as=0.156p ps=1.12u w=0.6u l=0.5u
X14 TG_1.IN b5b.t2 OUT5.t47 VSS.t152 nfet_03v3 ad=0.156p pd=1.12u as=0.156p ps=1.12u w=0.6u l=0.5u
X15 Gc_2 Gc_1.t94 Gc_1.t95 VDD.t0 pfet_03v3 ad=0.156p pd=1.12u as=0.156p ps=1.12u w=0.6u l=0.5u
X16 VSS G2.t3 SD2_5.t15 VSS.t266 nfet_03v3 ad=0.156p pd=1.12u as=0.156p ps=1.12u w=0.6u l=0.5u
X17 TG_1.IN SEL_L.t2 OUT-.t19 VSS.t431 nfet_03v3 ad=0.52p pd=2.52u as=0.52p ps=2.52u w=2u l=0.28u
X18 SDc_2 Gc_2.t96 VDD.t1 VDD.t0 pfet_03v3 ad=0.156p pd=1.12u as=0.156p ps=1.12u w=0.6u l=0.5u
X19 TG_0.IN a_n2265_3941.t13 OUT+.t68 VDD.t302 pfet_03v3 ad=0.52p pd=2.52u as=0.52p ps=2.52u w=2u l=0.28u
X20 SD3_1 SDn_2.t25 VSS.t509 VSS.t303 nfet_03v3 ad=0.156p pd=1.12u as=0.264p ps=2.08u w=0.6u l=0.5u
X21 TG_1.IN b4b.t2 OUT4.t7 VSS.t126 nfet_03v3 ad=0.156p pd=1.12u as=0.156p ps=1.12u w=0.6u l=0.5u
X22 TG_0.IN b5.t2 OUT5.t22 VSS.t97 nfet_03v3 ad=0.156p pd=1.12u as=0.156p ps=1.12u w=0.6u l=0.5u
X23 TG_0.IN TG_0.IN TG_0.IN VSS.t168 nfet_03v3 ad=0.156p pd=1.12u as=0 ps=0 w=0.6u l=0.5u
X24 OUT6 IT.t26 SD3_1.t46 VSS.t312 nfet_03v3 ad=0.156p pd=1.12u as=0.156p ps=1.12u w=0.6u l=0.5u
X25 SDc_2 Gc_1.t96 C32_U.t95 VDD.t15 pfet_03v3 ad=0.156p pd=1.12u as=0.156p ps=1.12u w=0.6u l=0.5u
X26 OUT6 b6b.t3 TG_1.IN.t93 VSS.t85 nfet_03v3 ad=0.156p pd=1.12u as=0.156p ps=1.12u w=0.6u l=0.5u
X27 VDD SEL_L.t3 a_n2280_5855.t7 VDD.t193 pfet_03v3 ad=0.88p pd=4.88u as=0.52p ps=2.52u w=2u l=0.28u
X28 TG_0.IN b5b.t3 TG_0.IN VSS.t150 nfet_03v3 ad=0 pd=0 as=0.156p ps=1.12u w=0.6u l=0.5u
X29 OUT6 b6.t3 TG_0.IN VSS.t85 nfet_03v3 ad=0.156p pd=1.12u as=0.156p ps=1.12u w=0.6u l=0.5u
X30 TG_1.IN b2b.t2 OUT2.t2 VSS.t315 nfet_03v3 ad=0.156p pd=1.12u as=0.156p ps=1.12u w=0.6u l=0.5u
X31 SDc_1 SDn_2.t26 VSS.t511 VSS.t510 nfet_03v3 ad=0.156p pd=1.12u as=0.156p ps=1.12u w=0.6u l=0.5u
X32 SDc_1 SDn_2.t27 VSS.t512 VSS.t9 nfet_03v3 ad=0.156p pd=1.12u as=0.156p ps=1.12u w=0.6u l=0.5u
X33 TG_0.IN SEL_L.t4 OUT+.t46 VSS.t339 nfet_03v3 ad=0.52p pd=2.52u as=0.52p ps=2.52u w=2u l=0.28u
X34 SD3_1 IT.t27 OUT6.t38 VSS.t313 nfet_03v3 ad=0.156p pd=1.12u as=0.156p ps=1.12u w=0.6u l=0.5u
X35 OUT- SEL_L.t5 TG_1.IN.t181 VSS.t340 nfet_03v3 ad=0.52p pd=2.52u as=0.52p ps=2.52u w=2u l=0.28u
X36 TG_1.IN SEL_L.t6 OUT-.t18 VSS.t332 nfet_03v3 ad=0.88p pd=4.88u as=0.52p ps=2.52u w=2u l=0.28u
X37 TG_0.IN SEL_L.t7 OUT+.t45 VSS.t333 nfet_03v3 ad=0.52p pd=2.52u as=0.52p ps=2.52u w=2u l=0.28u
X38 TG_1.IN.t92 TG_1.IN.t91 TG_1.IN.t92 VSS.t321 nfet_03v3 ad=0 pd=0 as=0.16p ps=1.64u w=0.3u l=0.5u
X39 SD2_5 ITAIL.t2 OUT4.t15 VSS.t328 nfet_03v3 ad=0.156p pd=1.12u as=0.264p ps=2.08u w=0.6u l=0.5u
X40 b1b B1.t0 VSS.t320 VSS.t319 nfet_03v3 ad=0.152p pd=1.64u as=0.152p ps=1.64u w=0.22u l=0.28u
X41 VDD Gc_2.t97 SDc_2.t30 VDD.t2 pfet_03v3 ad=0.156p pd=1.12u as=0.156p ps=1.12u w=0.6u l=0.5u
X42 SDc_1 IT.t28 Gc_1.t30 VSS.t314 nfet_03v3 ad=0.156p pd=1.12u as=0.156p ps=1.12u w=0.6u l=0.5u
X43 VDD Gc_2.t98 SDc_2.t29 VDD.t5 pfet_03v3 ad=0.156p pd=1.12u as=0.156p ps=1.12u w=0.6u l=0.5u
X44 TG_0.IN TG_0.IN TG_0.IN VSS.t361 nfet_03v3 ad=0.156p pd=1.12u as=0 ps=0 w=0.6u l=0.5u
X45 TG_1.IN b6b.t4 OUT6.t2 VSS.t5 nfet_03v3 ad=0.156p pd=1.12u as=0.156p ps=1.12u w=0.6u l=0.5u
X46 TG_0.IN SEL_L.t8 OUT+.t44 VSS.t103 nfet_03v3 ad=0.52p pd=2.52u as=0.52p ps=2.52u w=2u l=0.28u
X47 VSS Balance_Inverter_5.Inverter_0.OUT b6.t1 VSS.t582 nfet_03v3 ad=0.152p pd=1.64u as=0.152p ps=1.64u w=0.22u l=0.28u
X48 SDn_1 IT.t29 OUT5.t12 VSS.t495 nfet_03v3 ad=0.156p pd=1.12u as=0.156p ps=1.12u w=0.6u l=0.5u
X49 SDn_2 SDn_2.t14 VSS.t507 VSS.t365 nfet_03v3 ad=0.156p pd=1.12u as=0.264p ps=2.08u w=0.6u l=0.5u
X50 OUT+ a_n2265_3941.t14 TG_0.IN VDD.t303 pfet_03v3 ad=0.52p pd=2.52u as=0.52p ps=2.52u w=2u l=0.28u
X51 OUT5 b5.t3 TG_0.IN VSS.t88 nfet_03v3 ad=0.156p pd=1.12u as=0.156p ps=1.12u w=0.6u l=0.5u
X52 SDc_2 Gc_2.t99 VDD.t9 VDD.t8 pfet_03v3 ad=0.156p pd=1.12u as=0.156p ps=1.12u w=0.6u l=0.5u
X53 TG_0.IN b3.t2 OUT3.t9 VSS.t89 nfet_03v3 ad=0.264p pd=2.08u as=0.156p ps=1.12u w=0.6u l=0.5u
X54 VSS SDn_2.t29 SD3_1.t38 VSS.t481 nfet_03v3 ad=0.156p pd=1.12u as=0.156p ps=1.12u w=0.6u l=0.5u
X55 SDc_2 Gc_2.t100 VDD.t11 VDD.t10 pfet_03v3 ad=0.156p pd=1.12u as=0.156p ps=1.12u w=0.6u l=0.5u
X56 TG_0.IN b6.t4 OUT6.t72 VSS.t6 nfet_03v3 ad=0.156p pd=1.12u as=0.156p ps=1.12u w=0.6u l=0.5u
X57 TG_1.IN.t90 TG_1.IN.t89 TG_1.IN.t90 VSS.t180 nfet_03v3 ad=0 pd=0 as=0.264p ps=2.08u w=0.6u l=0.5u
X58 b2b b2.t3 VDD.t79 VDD.t78 pfet_03v3 ad=0.152p pd=1.64u as=0.152p ps=1.64u w=0.22u l=0.28u
X59 TG_1.IN a_n2280_5855.t13 OUT-.t58 VDD.t280 pfet_03v3 ad=0.52p pd=2.52u as=0.52p ps=2.52u w=2u l=0.28u
X60 OUT6 IT.t30 SD3_1.t55 VSS.t241 nfet_03v3 ad=0.156p pd=1.12u as=0.156p ps=1.12u w=0.6u l=0.5u
X61 OUT- SEL_L.t11 TG_1.IN.t179 VSS.t79 nfet_03v3 ad=0.52p pd=2.52u as=0.52p ps=2.52u w=2u l=0.28u
X62 SD3_1 IT.t31 OUT6.t36 VSS.t524 nfet_03v3 ad=0.156p pd=1.12u as=0.156p ps=1.12u w=0.6u l=0.5u
X63 TG_1.IN b6b.t5 OUT6.t3 VSS.t66 nfet_03v3 ad=0.156p pd=1.12u as=0.156p ps=1.12u w=0.6u l=0.5u
X64 TG_1.IN a_n2280_5855.t14 OUT-.t57 VDD.t281 pfet_03v3 ad=0.52p pd=2.52u as=0.52p ps=2.52u w=2u l=0.28u
X65 OUT+ a_n2265_3941.t15 TG_0.IN VDD.t304 pfet_03v3 ad=0.52p pd=2.52u as=0.52p ps=2.52u w=2u l=0.28u
X66 TG_0.IN a_n2265_3941.t16 OUT+.t71 VDD.t305 pfet_03v3 ad=0.52p pd=2.52u as=0.52p ps=2.52u w=2u l=0.28u
X67 Gc_1 IT.t32 SDc_1.t30 VSS.t513 nfet_03v3 ad=0.156p pd=1.12u as=0.156p ps=1.12u w=0.6u l=0.5u
X68 VDD Gc_2.t62 Gc_2.t63 VDD.t27 pfet_03v3 ad=0.156p pd=1.12u as=0.156p ps=1.12u w=0.6u l=0.5u
X69 TG_0.IN TG_0.IN TG_0.IN VSS.t362 nfet_03v3 ad=0 pd=0 as=0.156p ps=1.12u w=0.6u l=0.5u
X70 C32_U Gc_1.t97 SDc_2.t63 VDD.t98 pfet_03v3 ad=0.156p pd=1.12u as=0.156p ps=1.12u w=0.6u l=0.5u
X71 TG_1.IN.t88 TG_1.IN.t87 TG_1.IN.t88 VSS.t178 nfet_03v3 ad=0.156p pd=1.12u as=0 ps=0 w=0.6u l=0.5u
X72 TG_1.IN.t86 TG_1.IN.t85 TG_1.IN.t86 VSS.t173 nfet_03v3 ad=0 pd=0 as=0.156p ps=1.12u w=0.6u l=0.5u
X73 OUT+ a_n2265_3941.t17 TG_0.IN VDD.t306 pfet_03v3 ad=0.52p pd=2.52u as=0.88p ps=4.88u w=2u l=0.28u
X74 OUT4 b4.t2 TG_0.IN VSS.t160 nfet_03v3 ad=0.156p pd=1.12u as=0.156p ps=1.12u w=0.6u l=0.5u
X75 Gc_1 Gc_1.t44 Gc_2.t94 VDD.t12 pfet_03v3 ad=0.156p pd=1.12u as=0.156p ps=1.12u w=0.6u l=0.5u
X76 SD3_1 IT.t33 OUT6.t35 VSS.t247 nfet_03v3 ad=0.156p pd=1.12u as=0.156p ps=1.12u w=0.6u l=0.5u
X77 TG_1.IN.t84 TG_1.IN.t83 TG_1.IN.t84 VSS.t175 nfet_03v3 ad=0 pd=0 as=0.16p ps=1.64u w=0.3u l=0.5u
X78 SD3_1 IT.t34 OUT6.t34 VSS.t533 nfet_03v3 ad=0.156p pd=1.12u as=0.156p ps=1.12u w=0.6u l=0.5u
X79 SD2_1 G2.t4 VSS.t351 VSS.t269 nfet_03v3 ad=0.156p pd=1.12u as=0.156p ps=1.12u w=0.6u l=0.5u
X80 VDD Gc_2.t101 SDc_2.t26 VDD.t12 pfet_03v3 ad=0.156p pd=1.12u as=0.156p ps=1.12u w=0.6u l=0.5u
X81 OUT6 b6.t5 TG_0.IN VSS.t68 nfet_03v3 ad=0.156p pd=1.12u as=0.156p ps=1.12u w=0.6u l=0.5u
X82 TG_1.IN.t117 b4.t3 TG_1.IN.t117 VSS.t133 nfet_03v3 ad=0 pd=0 as=0.16p ps=1.64u w=0.3u l=0.5u
X83 OUT- a_n2280_5855.t15 TG_1.IN.t219 VDD.t282 pfet_03v3 ad=0.52p pd=2.52u as=0.52p ps=2.52u w=2u l=0.28u
X84 OUT+ SEL_L.t13 TG_0.IN VSS.t393 nfet_03v3 ad=0.52p pd=2.52u as=0.52p ps=2.52u w=2u l=0.28u
X85 OUT6 IT.t35 SD3_1.t59 VSS.t535 nfet_03v3 ad=0.156p pd=1.12u as=0.156p ps=1.12u w=0.6u l=0.5u
X86 SDc_1 IT.t36 Gc_1.t29 VSS.t503 nfet_03v3 ad=0.156p pd=1.12u as=0.264p ps=2.08u w=0.6u l=0.5u
X87 SDc_1 SDn_2.t30 VSS.t484 VSS.t16 nfet_03v3 ad=0.156p pd=1.12u as=0.156p ps=1.12u w=0.6u l=0.5u
X88 SDn_2 IT.t14 IT.t15 VSS.t371 nfet_03v3 ad=0.156p pd=1.12u as=0.156p ps=1.12u w=0.6u l=0.5u
X89 TG_1.IN.t118 b4.t4 TG_1.IN.t118 VSS.t161 nfet_03v3 ad=0 pd=0 as=0.16p ps=1.64u w=0.3u l=0.5u
X90 SDc_1 SDn_2.t31 VSS.t485 VSS.t377 nfet_03v3 ad=0.156p pd=1.12u as=0.156p ps=1.12u w=0.6u l=0.5u
X91 TG_1.IN b6b.t6 OUT6.t4 VSS.t67 nfet_03v3 ad=0.156p pd=1.12u as=0.156p ps=1.12u w=0.6u l=0.5u
X92 TG_0.IN SEL_L.t14 OUT+.t42 VSS.t380 nfet_03v3 ad=0.52p pd=2.52u as=0.52p ps=2.52u w=2u l=0.28u
X93 OUT+ SEL_L.t15 TG_0.IN VSS.t381 nfet_03v3 ad=0.52p pd=2.52u as=0.52p ps=2.52u w=2u l=0.28u
X94 IT G1_2.t24 SD1_1.t13 VDD.t213 pfet_03v3 ad=0.156p pd=1.12u as=0.156p ps=1.12u w=0.6u l=0.5u
X95 OUT- a_n2280_5855.t16 TG_1.IN.t218 VDD.t314 pfet_03v3 ad=0.52p pd=2.52u as=0.52p ps=2.52u w=2u l=0.28u
X96 SDc_1 IT.t37 Gc_1.t28 VSS.t466 nfet_03v3 ad=0.156p pd=1.12u as=0.156p ps=1.12u w=0.6u l=0.5u
X97 SDc_1 SDn_2.t32 VSS.t486 VSS.t304 nfet_03v3 ad=0.156p pd=1.12u as=0.156p ps=1.12u w=0.6u l=0.5u
X98 TG_1.IN.t115 b2.t4 TG_1.IN.t115 VSS.t154 nfet_03v3 ad=0 pd=0 as=0.16p ps=1.64u w=0.3u l=0.5u
X99 VSS G2.t5 SD2_4.t7 VSS.t282 nfet_03v3 ad=0.264p pd=2.08u as=0.156p ps=1.12u w=0.6u l=0.5u
X100 TG_1.IN b6b.t7 OUT6.t5 VSS.t67 nfet_03v3 ad=0.156p pd=1.12u as=0.156p ps=1.12u w=0.6u l=0.5u
X101 TG_0.IN TG_0.IN TG_0.IN VSS.t166 nfet_03v3 ad=0 pd=0 as=0.264p ps=2.08u w=0.6u l=0.5u
X102 OUT6 b6.t6 TG_0.IN VSS.t8 nfet_03v3 ad=0.156p pd=1.12u as=0.156p ps=1.12u w=0.6u l=0.5u
X103 OUT6 IT.t38 SD3_1.t60 VSS.t249 nfet_03v3 ad=0.156p pd=1.12u as=0.156p ps=1.12u w=0.6u l=0.5u
X104 TG_0.IN TG_0.IN TG_0.IN VSS.t166 nfet_03v3 ad=0 pd=0 as=0.264p ps=2.08u w=0.6u l=0.5u
X105 TG_0.IN a_n2265_3941.t18 OUT+.t73 VDD.t307 pfet_03v3 ad=0.52p pd=2.52u as=0.52p ps=2.52u w=2u l=0.28u
X106 VSS SDn_2.t33 SDn_1.t31 VSS.t376 nfet_03v3 ad=0.264p pd=2.08u as=0.156p ps=1.12u w=0.6u l=0.5u
X107 G1_1 G1_2.t16 G1_2.t17 VDD.t224 pfet_03v3 ad=0.156p pd=1.12u as=0.156p ps=1.12u w=0.6u l=0.5u
X108 TG_1.IN.t123 b5.t4 TG_1.IN.t123 VSS.t98 nfet_03v3 ad=0 pd=0 as=0.156p ps=1.12u w=0.6u l=0.5u
X109 Gc_2 Gc_2.t60 VDD.t103 VDD.t80 pfet_03v3 ad=0.156p pd=1.12u as=0.156p ps=1.12u w=0.6u l=0.5u
X110 OUT4 ITAIL.t3 SD2_5.t7 VSS.t124 nfet_03v3 ad=0.264p pd=2.08u as=0.156p ps=1.12u w=0.6u l=0.5u
X111 C32_U C32_U.t28 C32_D.t95 VSS.t164 nfet_03v3 ad=0.156p pd=1.12u as=0.156p ps=1.12u w=0.6u l=0.5u
X112 TG_0.IN TG_0.IN TG_0.IN VSS.t173 nfet_03v3 ad=0 pd=0 as=0.156p ps=1.12u w=0.6u l=0.5u
X113 SDc_2 Gc_1.t99 C32_U.t93 VDD.t80 pfet_03v3 ad=0.156p pd=1.12u as=0.156p ps=1.12u w=0.6u l=0.5u
X114 TG_1.IN.t82 TG_1.IN.t81 TG_1.IN.t82 VSS.t173 nfet_03v3 ad=0 pd=0 as=0.156p ps=1.12u w=0.6u l=0.5u
X115 TG_1.IN.t80 TG_1.IN.t79 TG_1.IN.t80 VSS.t172 nfet_03v3 ad=0 pd=0 as=0.264p ps=2.08u w=0.6u l=0.5u
X116 OUT6 b6b.t8 TG_1.IN.t8 VSS.t68 nfet_03v3 ad=0.156p pd=1.12u as=0.156p ps=1.12u w=0.6u l=0.5u
X117 TG_1.IN SEL_L.t16 OUT-.t17 VSS.t448 nfet_03v3 ad=0.52p pd=2.52u as=0.52p ps=2.52u w=2u l=0.28u
X118 OUT+ SEL_L.t17 TG_0.IN VSS.t449 nfet_03v3 ad=0.52p pd=2.52u as=0.52p ps=2.52u w=2u l=0.28u
X119 TG_0.IN b6b.t9 TG_0.IN VSS.t69 nfet_03v3 ad=0 pd=0 as=0.156p ps=1.12u w=0.6u l=0.5u
X120 OUT6 b6.t7 TG_0.IN VSS.t68 nfet_03v3 ad=0.156p pd=1.12u as=0.156p ps=1.12u w=0.6u l=0.5u
X121 TG_0.IN SEL_L.t18 OUT+.t39 VSS.t410 nfet_03v3 ad=0.52p pd=2.52u as=0.52p ps=2.52u w=2u l=0.28u
X122 SD2_1 ITAIL.t4 G1_2.t7 VSS.t119 nfet_03v3 ad=0.156p pd=1.12u as=0.264p ps=2.08u w=0.6u l=0.5u
X123 C32_D C32_D.t62 VSS.t141 VSS.t140 nfet_03v3 ad=0.156p pd=1.12u as=0.156p ps=1.12u w=0.6u l=0.5u
X124 Gc_2 Gc_2.t58 VDD.t102 VDD.t101 pfet_03v3 ad=0.156p pd=1.12u as=0.156p ps=1.12u w=0.6u l=0.5u
X125 SDc_1 IT.t39 Gc_1.t27 VSS.t9 nfet_03v3 ad=0.156p pd=1.12u as=0.156p ps=1.12u w=0.6u l=0.5u
X126 VSS C32_D.t60 C32_D.t61 VSS.t164 nfet_03v3 ad=0.156p pd=1.12u as=0.156p ps=1.12u w=0.6u l=0.5u
X127 TG_1.IN SEL_L.t19 OUT-.t16 VSS.t411 nfet_03v3 ad=0.52p pd=2.52u as=0.52p ps=2.52u w=2u l=0.28u
X128 VDD SEL_L.t20 a_n2265_3941.t6 VDD.t186 pfet_03v3 ad=0.88p pd=4.88u as=0.52p ps=2.52u w=2u l=0.28u
X129 VSS SDn_2.t34 SD3_1.t37 VSS.t373 nfet_03v3 ad=0.156p pd=1.12u as=0.156p ps=1.12u w=0.6u l=0.5u
X130 G1_2 G1_2.t22 G1_1.t22 VDD.t227 pfet_03v3 ad=0.156p pd=1.12u as=0.156p ps=1.12u w=0.6u l=0.5u
X131 Balance_Inverter_1.Inverter_0.OUT B3.t0 VDD.t313 VDD.t312 pfet_03v3 ad=0.22p pd=1.88u as=0.22p ps=1.88u w=0.5u l=0.28u
X132 TG_0.IN b4b.t3 TG_0.IN VSS.t432 nfet_03v3 ad=0.16p pd=1.64u as=0 ps=0 w=0.3u l=0.5u
X133 SDc_1 SDn_2.t35 VSS.t491 VSS.t314 nfet_03v3 ad=0.156p pd=1.12u as=0.156p ps=1.12u w=0.6u l=0.5u
X134 TG_0.IN b6.t8 OUT6.t68 VSS.t6 nfet_03v3 ad=0.156p pd=1.12u as=0.156p ps=1.12u w=0.6u l=0.5u
X135 TG_1.IN a_n2280_5855.t17 OUT-.t56 VDD.t315 pfet_03v3 ad=0.52p pd=2.52u as=0.52p ps=2.52u w=2u l=0.28u
X136 TG_0.IN b4.t5 OUT4.t17 VSS.t443 nfet_03v3 ad=0.156p pd=1.12u as=0.156p ps=1.12u w=0.6u l=0.5u
X137 Gc_2 Gc_1.t92 Gc_1.t93 VDD.t15 pfet_03v3 ad=0.156p pd=1.12u as=0.156p ps=1.12u w=0.6u l=0.5u
X138 TG_0.IN SEL_L.t21 OUT+.t38 VSS.t447 nfet_03v3 ad=0.88p pd=4.88u as=0.52p ps=2.52u w=2u l=0.28u
X139 TG_1.IN.t125 b6.t9 TG_1.IN.t125 VSS.t279 nfet_03v3 ad=0 pd=0 as=0.264p ps=2.08u w=0.6u l=0.5u
X140 TG_0.IN TG_0.IN TG_0.IN VSS.t172 nfet_03v3 ad=0 pd=0 as=0.264p ps=2.08u w=0.6u l=0.5u
X141 TG_0.IN TG_0.IN TG_0.IN VSS.t166 nfet_03v3 ad=0 pd=0 as=0.264p ps=2.08u w=0.6u l=0.5u
X142 SDc_2 Gc_2.t104 VDD.t16 VDD.t15 pfet_03v3 ad=0.156p pd=1.12u as=0.156p ps=1.12u w=0.6u l=0.5u
X143 TG_1.IN b6b.t10 OUT6.t7 VSS.t66 nfet_03v3 ad=0.156p pd=1.12u as=0.156p ps=1.12u w=0.6u l=0.5u
X144 OUT5 b5b.t4 TG_1.IN.t98 VSS.t91 nfet_03v3 ad=0.156p pd=1.12u as=0.156p ps=1.12u w=0.6u l=0.5u
X145 Gc_1 Gc_1.t42 Gc_2.t92 VDD.t30 pfet_03v3 ad=0.156p pd=1.12u as=0.156p ps=1.12u w=0.6u l=0.5u
X146 C32_D C32_U.t60 C32_U.t61 VSS.t140 nfet_03v3 ad=0.156p pd=1.12u as=0.156p ps=1.12u w=0.6u l=0.5u
X147 C32_U C32_U.t12 C32_D.t93 VSS.t0 nfet_03v3 ad=0.156p pd=1.12u as=0.156p ps=1.12u w=0.6u l=0.5u
X148 VSS SDn_2.t36 SD3_1.t36 VSS.t492 nfet_03v3 ad=0.156p pd=1.12u as=0.156p ps=1.12u w=0.6u l=0.5u
X149 G1_2 ITAIL.t5 SD2_1.t7 VSS.t122 nfet_03v3 ad=0.264p pd=2.08u as=0.156p ps=1.12u w=0.6u l=0.5u
X150 OUT6 IT.t40 SD3_1.t0 VSS.t10 nfet_03v3 ad=0.156p pd=1.12u as=0.156p ps=1.12u w=0.6u l=0.5u
X151 SD1_1 G1_2.t26 IT.t17 VDD.t214 pfet_03v3 ad=0.156p pd=1.12u as=0.156p ps=1.12u w=0.6u l=0.5u
X152 TG_1.IN.t109 b5.t5 TG_1.IN.t109 VSS.t139 nfet_03v3 ad=0 pd=0 as=0.264p ps=2.08u w=0.6u l=0.5u
X153 SDn_1 SDn_2.t37 VSS.t496 VSS.t495 nfet_03v3 ad=0.156p pd=1.12u as=0.156p ps=1.12u w=0.6u l=0.5u
X154 OUT5 b5.t6 TG_0.IN VSS.t93 nfet_03v3 ad=0.156p pd=1.12u as=0.156p ps=1.12u w=0.6u l=0.5u
X155 OUT- SEL_L.t23 TG_1.IN.t176 VSS.t408 nfet_03v3 ad=0.52p pd=2.52u as=0.52p ps=2.52u w=2u l=0.28u
X156 VDD G1_1.t24 SD1_1.t2 VDD.t218 pfet_03v3 ad=0.264p pd=2.08u as=0.156p ps=1.12u w=0.6u l=0.5u
X157 OUT- SEL_L.t24 TG_1.IN.t175 VSS.t433 nfet_03v3 ad=0.52p pd=2.52u as=0.52p ps=2.52u w=2u l=0.28u
X158 SD3_1 IT.t41 OUT6.t30 VSS.t11 nfet_03v3 ad=0.156p pd=1.12u as=0.156p ps=1.12u w=0.6u l=0.5u
X159 VSS SDn_2.t38 SDn_1.t29 VSS.t497 nfet_03v3 ad=0.156p pd=1.12u as=0.156p ps=1.12u w=0.6u l=0.5u
X160 TG_1.IN.t78 TG_1.IN.t77 TG_1.IN.t78 VSS.t171 nfet_03v3 ad=94.8f pd=0.92u as=0 ps=0 w=0.3u l=0.5u
X161 TG_1.IN.t76 TG_1.IN.t75 TG_1.IN.t76 VSS.t170 nfet_03v3 ad=0 pd=0 as=0.264p ps=2.08u w=0.6u l=0.5u
X162 OUT5 b5b.t5 TG_1.IN.t253 VSS.t88 nfet_03v3 ad=0.156p pd=1.12u as=0.156p ps=1.12u w=0.6u l=0.5u
X163 Gc_1 Gc_1.t40 Gc_2.t91 VDD.t29 pfet_03v3 ad=0.264p pd=2.08u as=0.156p ps=1.12u w=0.6u l=0.5u
X164 TG_0.IN a_n2265_3941.t19 OUT+.t49 VDD.t283 pfet_03v3 ad=0.52p pd=2.52u as=0.52p ps=2.52u w=2u l=0.28u
X165 TG_1.IN.t136 b5.t7 TG_1.IN.t136 VSS.t128 nfet_03v3 ad=0 pd=0 as=0.156p ps=1.12u w=0.6u l=0.5u
X166 OUT- SEL_L.t25 TG_1.IN.t174 VSS.t434 nfet_03v3 ad=0.52p pd=2.52u as=0.52p ps=2.52u w=2u l=0.28u
X167 TG_0.IN b6.t10 OUT6.t67 VSS.t5 nfet_03v3 ad=0.156p pd=1.12u as=0.156p ps=1.12u w=0.6u l=0.5u
X168 OUT6 IT.t42 SD3_1.t2 VSS.t12 nfet_03v3 ad=0.156p pd=1.12u as=0.156p ps=1.12u w=0.6u l=0.5u
X169 SDn_1 IT.t43 OUT5.t11 VSS.t13 nfet_03v3 ad=0.156p pd=1.12u as=0.156p ps=1.12u w=0.6u l=0.5u
X170 VSS C32_D.t58 C32_D.t59 VSS.t0 nfet_03v3 ad=0.156p pd=1.12u as=0.156p ps=1.12u w=0.6u l=0.5u
X171 TG_0.IN a_n2265_3941.t20 OUT+.t50 VDD.t284 pfet_03v3 ad=0.52p pd=2.52u as=0.52p ps=2.52u w=2u l=0.28u
X172 G1_2 G1_2.t20 G1_1.t21 VDD.t226 pfet_03v3 ad=0.156p pd=1.12u as=0.156p ps=1.12u w=0.6u l=0.5u
X173 OUT- a_n2280_5855.t18 TG_1.IN.t216 VDD.t316 pfet_03v3 ad=0.52p pd=2.52u as=0.52p ps=2.52u w=2u l=0.28u
X174 VDD Gc_2.t56 Gc_2.t57 VDD.t98 pfet_03v3 ad=0.156p pd=1.12u as=0.156p ps=1.12u w=0.6u l=0.5u
X175 Gc_1 Gc_1.t38 Gc_2.t90 VDD.t28 pfet_03v3 ad=0.156p pd=1.12u as=0.156p ps=1.12u w=0.6u l=0.5u
X176 TG_0.IN b6.t11 OUT6.t66 VSS.t5 nfet_03v3 ad=0.156p pd=1.12u as=0.156p ps=1.12u w=0.6u l=0.5u
X177 OUT- SEL_L.t27 TG_1.IN.t173 VSS.t383 nfet_03v3 ad=0.52p pd=2.52u as=0.52p ps=2.52u w=2u l=0.28u
X178 OUT+ SEL_L.t28 TG_0.IN VSS.t394 nfet_03v3 ad=0.52p pd=2.52u as=0.52p ps=2.52u w=2u l=0.28u
X179 TG_0.IN b6b.t11 TG_0.IN VSS.t70 nfet_03v3 ad=0 pd=0 as=0.264p ps=2.08u w=0.6u l=0.5u
X180 TG_0.IN TG_0.IN TG_0.IN VSS.t325 nfet_03v3 ad=0 pd=0 as=0.156p ps=1.12u w=0.6u l=0.5u
X181 VDD Gc_2.t54 Gc_2.t55 VDD.t124 pfet_03v3 ad=0.156p pd=1.12u as=0.156p ps=1.12u w=0.6u l=0.5u
X182 VSS G2.t6 SD2_5.t14 VSS.t111 nfet_03v3 ad=0.156p pd=1.12u as=0.156p ps=1.12u w=0.6u l=0.5u
X183 VDD b3b.t2 b3.t1 VDD.t343 pfet_03v3 ad=0.152p pd=1.64u as=0.152p ps=1.64u w=0.22u l=0.28u
X184 VSS Balance_Inverter_0.Inverter_0.OUT b4.t1 VSS.t593 nfet_03v3 ad=0.152p pd=1.64u as=0.152p ps=1.64u w=0.22u l=0.28u
X185 OUT6 b6b.t12 TG_1.IN.t10 VSS.t71 nfet_03v3 ad=0.156p pd=1.12u as=0.156p ps=1.12u w=0.6u l=0.5u
X186 OUT- SEL_L.t29 TG_1.IN.t172 VSS.t395 nfet_03v3 ad=0.52p pd=2.52u as=0.88p ps=4.88u w=2u l=0.28u
X187 TG_0.IN TG_0.IN TG_0.IN VSS.t167 nfet_03v3 ad=0.156p pd=1.12u as=0 ps=0 w=0.6u l=0.5u
X188 OUT6 IT.t44 SD3_1.t3 VSS.t14 nfet_03v3 ad=0.264p pd=2.08u as=0.156p ps=1.12u w=0.6u l=0.5u
X189 VSS G2.t7 SD2_5.t13 VSS.t266 nfet_03v3 ad=0.156p pd=1.12u as=0.156p ps=1.12u w=0.6u l=0.5u
X190 Gc_1 Gc_1.t36 Gc_2.t89 VDD.t5 pfet_03v3 ad=0.156p pd=1.12u as=0.156p ps=1.12u w=0.6u l=0.5u
X191 TG_0.IN TG_0.IN TG_0.IN VSS.t180 nfet_03v3 ad=0 pd=0 as=0.264p ps=2.08u w=0.6u l=0.5u
X192 SD3_1 IT.t45 OUT6.t27 VSS.t15 nfet_03v3 ad=0.156p pd=1.12u as=0.156p ps=1.12u w=0.6u l=0.5u
X193 VSS SDn_2.t39 SDn_1.t28 VSS.t307 nfet_03v3 ad=0.156p pd=1.12u as=0.156p ps=1.12u w=0.6u l=0.5u
X194 VDD G1_1.t14 G1_1.t15 VDD.t142 pfet_03v3 ad=0.156p pd=1.12u as=0.156p ps=1.12u w=0.6u l=0.5u
X195 OUT5 b5b.t6 TG_1.IN.t252 VSS.t96 nfet_03v3 ad=0.156p pd=1.12u as=0.156p ps=1.12u w=0.6u l=0.5u
X196 TG_0.IN TG_0.IN TG_0.IN VSS.t180 nfet_03v3 ad=0 pd=0 as=0.264p ps=2.08u w=0.6u l=0.5u
X197 TG_1.IN SEL_L.t30 OUT-.t15 VSS.t337 nfet_03v3 ad=0.52p pd=2.52u as=0.52p ps=2.52u w=2u l=0.28u
X198 SDc_1 SDn_2.t40 VSS.t502 VSS.t308 nfet_03v3 ad=0.156p pd=1.12u as=0.156p ps=1.12u w=0.6u l=0.5u
X199 TG_1.IN b1b.t2 OUT1.t1 VSS.t372 nfet_03v3 ad=0.156p pd=1.12u as=0.156p ps=1.12u w=0.6u l=0.5u
X200 SDc_1 SDn_2.t41 VSS.t504 VSS.t503 nfet_03v3 ad=0.156p pd=1.12u as=0.264p ps=2.08u w=0.6u l=0.5u
X201 OUT+ a_n2265_3941.t21 TG_0.IN VDD.t285 pfet_03v3 ad=0.52p pd=2.52u as=0.52p ps=2.52u w=2u l=0.28u
X202 SD3_1 SDn_2.t42 VSS.t464 VSS.t311 nfet_03v3 ad=0.156p pd=1.12u as=0.156p ps=1.12u w=0.6u l=0.5u
X203 SDc_1 IT.t46 Gc_1.t26 VSS.t16 nfet_03v3 ad=0.156p pd=1.12u as=0.156p ps=1.12u w=0.6u l=0.5u
X204 OUT- a_n2280_5855.t19 TG_1.IN.t215 VDD.t317 pfet_03v3 ad=0.52p pd=2.52u as=0.52p ps=2.52u w=2u l=0.28u
X205 OUT3 ITAIL.t6 SD2_4.t3 VSS.t123 nfet_03v3 ad=0.264p pd=2.08u as=0.156p ps=1.12u w=0.6u l=0.5u
X206 OUT6 b6b.t13 TG_1.IN.t239 VSS.t8 nfet_03v3 ad=0.156p pd=1.12u as=0.156p ps=1.12u w=0.6u l=0.5u
X207 SDn_1 IT.t47 OUT5.t10 VSS.t17 nfet_03v3 ad=0.156p pd=1.12u as=0.156p ps=1.12u w=0.6u l=0.5u
X208 SDc_1 SDn_2.t43 VSS.t465 VSS.t309 nfet_03v3 ad=0.156p pd=1.12u as=0.156p ps=1.12u w=0.6u l=0.5u
X209 SDc_1 IT.t48 Gc_1.t25 VSS.t18 nfet_03v3 ad=0.156p pd=1.12u as=0.156p ps=1.12u w=0.6u l=0.5u
X210 TG_1.IN.t126 b6.t12 TG_1.IN.t126 VSS.t69 nfet_03v3 ad=0 pd=0 as=0.156p ps=1.12u w=0.6u l=0.5u
X211 SDc_2 Gc_2.t105 VDD.t18 VDD.t17 pfet_03v3 ad=0.156p pd=1.12u as=0.156p ps=1.12u w=0.6u l=0.5u
X212 SDc_1 SDn_2.t44 VSS.t467 VSS.t466 nfet_03v3 ad=0.156p pd=1.12u as=0.156p ps=1.12u w=0.6u l=0.5u
X213 SDc_1 IT.t49 Gc_1.t24 VSS.t304 nfet_03v3 ad=0.156p pd=1.12u as=0.156p ps=1.12u w=0.6u l=0.5u
X214 SD3_1 IT.t50 OUT6.t26 VSS.t305 nfet_03v3 ad=0.156p pd=1.12u as=0.156p ps=1.12u w=0.6u l=0.5u
X215 TG_1.IN.t137 b5.t8 TG_1.IN.t137 VSS.t318 nfet_03v3 ad=0 pd=0 as=0.264p ps=2.08u w=0.6u l=0.5u
X216 SDc_1 SDn_2.t45 VSS.t469 VSS.t468 nfet_03v3 ad=0.156p pd=1.12u as=0.156p ps=1.12u w=0.6u l=0.5u
X217 VSS SDn_2.t46 SD3_1.t34 VSS.t312 nfet_03v3 ad=0.156p pd=1.12u as=0.156p ps=1.12u w=0.6u l=0.5u
X218 SDn_1 IT.t51 OUT5.t9 VSS.t306 nfet_03v3 ad=0.156p pd=1.12u as=0.156p ps=1.12u w=0.6u l=0.5u
X219 SDc_1 IT.t52 Gc_1.t23 VSS.t254 nfet_03v3 ad=0.156p pd=1.12u as=0.156p ps=1.12u w=0.6u l=0.5u
X220 OUT+ a_n2265_3941.t22 TG_0.IN VDD.t286 pfet_03v3 ad=0.52p pd=2.52u as=0.52p ps=2.52u w=2u l=0.28u
X221 SD1_1 G1_1.t25 VDD.t116 VDD.t115 pfet_03v3 ad=0.156p pd=1.12u as=0.264p ps=2.08u w=0.6u l=0.5u
X222 SDc_2 Gc_1.t104 C32_U.t92 VDD.t32 pfet_03v3 ad=0.156p pd=1.12u as=0.156p ps=1.12u w=0.6u l=0.5u
X223 TG_1.IN SEL_L.t31 OUT-.t14 VSS.t338 nfet_03v3 ad=0.52p pd=2.52u as=0.52p ps=2.52u w=2u l=0.28u
X224 SD3_1 SDn_2.t47 VSS.t472 VSS.t313 nfet_03v3 ad=0.156p pd=1.12u as=0.156p ps=1.12u w=0.6u l=0.5u
X225 TG_0.IN b3b.t3 TG_0.IN VSS.t58 nfet_03v3 ad=94.8f pd=0.92u as=0 ps=0 w=0.3u l=0.5u
X226 OUT5 b5b.t7 TG_1.IN.t251 VSS.t91 nfet_03v3 ad=0.156p pd=1.12u as=0.156p ps=1.12u w=0.6u l=0.5u
X227 TG_1.IN SEL_L.t32 OUT-.t13 VSS.t198 nfet_03v3 ad=0.52p pd=2.52u as=0.52p ps=2.52u w=2u l=0.28u
X228 TG_0.IN TG_0.IN TG_0.IN VSS.t326 nfet_03v3 ad=94.8f pd=0.92u as=0 ps=0 w=0.3u l=0.5u
X229 VSS SDn_2.t48 SDn_1.t27 VSS.t302 nfet_03v3 ad=0.156p pd=1.12u as=0.156p ps=1.12u w=0.6u l=0.5u
X230 OUT5 b5.t9 TG_0.IN VSS.t93 nfet_03v3 ad=0.156p pd=1.12u as=0.156p ps=1.12u w=0.6u l=0.5u
X231 Gc_1 Gc_1.t34 Gc_2.t88 VDD.t27 pfet_03v3 ad=0.156p pd=1.12u as=0.156p ps=1.12u w=0.6u l=0.5u
X232 VDD Gc_2.t106 SDc_2.t23 VDD.t27 pfet_03v3 ad=0.156p pd=1.12u as=0.156p ps=1.12u w=0.6u l=0.5u
X233 OUT6 b6.t13 TG_0.IN VSS.t71 nfet_03v3 ad=0.156p pd=1.12u as=0.156p ps=1.12u w=0.6u l=0.5u
X234 TG_1.IN a_n2280_5855.t20 OUT-.t55 VDD.t308 pfet_03v3 ad=0.52p pd=2.52u as=0.52p ps=2.52u w=2u l=0.28u
X235 OUT6 b6b.t14 TG_1.IN.t240 VSS.t71 nfet_03v3 ad=0.156p pd=1.12u as=0.156p ps=1.12u w=0.6u l=0.5u
X236 SD3_1 SDn_2.t49 VSS.t475 VSS.t385 nfet_03v3 ad=0.156p pd=1.12u as=0.156p ps=1.12u w=0.6u l=0.5u
X237 TG_0.IN b4b.t4 TG_0.IN VSS.t589 nfet_03v3 ad=0 pd=0 as=94.8f ps=0.92u w=0.3u l=0.5u
X238 C32_D C32_D.t56 VSS.t422 VSS.t322 nfet_03v3 ad=0.156p pd=1.12u as=0.156p ps=1.12u w=0.6u l=0.5u
X239 Gc_2 Gc_1.t90 Gc_1.t91 VDD.t17 pfet_03v3 ad=0.156p pd=1.12u as=0.156p ps=1.12u w=0.6u l=0.5u
X240 VSS SDn_2.t50 SDn_1.t26 VSS.t476 nfet_03v3 ad=0.156p pd=1.12u as=0.156p ps=1.12u w=0.6u l=0.5u
X241 TG_1.IN.t127 b6.t14 TG_1.IN.t127 VSS.t8 nfet_03v3 ad=0 pd=0 as=0.156p ps=1.12u w=0.6u l=0.5u
X242 TG_1.IN b5b.t8 OUT5.t42 VSS.t127 nfet_03v3 ad=0.156p pd=1.12u as=0.156p ps=1.12u w=0.6u l=0.5u
X243 Gc_2 Gc_2.t52 VDD.t332 VDD.t46 pfet_03v3 ad=0.156p pd=1.12u as=0.156p ps=1.12u w=0.6u l=0.5u
X244 Gc_1 IT.t53 SDc_1.t22 VSS.t259 nfet_03v3 ad=0.156p pd=1.12u as=0.156p ps=1.12u w=0.6u l=0.5u
X245 OUT- a_n2280_5855.t21 TG_1.IN.t213 VDD.t309 pfet_03v3 ad=0.52p pd=2.52u as=0.52p ps=2.52u w=2u l=0.28u
X246 TG_0.IN a_n2265_3941.t23 OUT+.t53 VDD.t287 pfet_03v3 ad=0.52p pd=2.52u as=0.52p ps=2.52u w=2u l=0.28u
X247 SDn_1 SDn_2.t51 VSS.t480 VSS.t479 nfet_03v3 ad=0.156p pd=1.12u as=0.156p ps=1.12u w=0.6u l=0.5u
X248 TG_1.IN.t256 b4.t6 TG_1.IN.t256 VSS.t591 nfet_03v3 ad=0 pd=0 as=0.16p ps=1.64u w=0.3u l=0.5u
X249 VSS SDn_2.t52 SD3_1.t31 VSS.t241 nfet_03v3 ad=0.156p pd=1.12u as=0.156p ps=1.12u w=0.6u l=0.5u
X250 G1_1 G1_1.t12 VDD.t148 VDD.t147 pfet_03v3 ad=0.156p pd=1.12u as=0.264p ps=2.08u w=0.6u l=0.5u
X251 TG_0.IN TG_0.IN TG_0.IN VSS.t325 nfet_03v3 ad=0 pd=0 as=0.156p ps=1.12u w=0.6u l=0.5u
X252 TG_1.IN.t128 b6.t15 TG_1.IN.t128 VSS.t70 nfet_03v3 ad=0 pd=0 as=0.264p ps=2.08u w=0.6u l=0.5u
X253 TG_0.IN SEL_L.t33 OUT+.t36 VSS.t199 nfet_03v3 ad=0.52p pd=2.52u as=0.52p ps=2.52u w=2u l=0.28u
X254 TG_0.IN b6b.t15 TG_0.IN VSS.t3 nfet_03v3 ad=0 pd=0 as=0.156p ps=1.12u w=0.6u l=0.5u
X255 TG_0.IN b5.t10 OUT5.t28 VSS.t87 nfet_03v3 ad=0.156p pd=1.12u as=0.156p ps=1.12u w=0.6u l=0.5u
X256 C32_D C32_U.t58 C32_U.t59 VSS.t322 nfet_03v3 ad=0.156p pd=1.12u as=0.156p ps=1.12u w=0.6u l=0.5u
X257 OUT- SEL_L.t34 TG_1.IN.t168 VSS.t341 nfet_03v3 ad=0.52p pd=2.52u as=0.52p ps=2.52u w=2u l=0.28u
X258 SD2_1 G2.t8 VSS.t270 VSS.t269 nfet_03v3 ad=0.156p pd=1.12u as=0.156p ps=1.12u w=0.6u l=0.5u
X259 SD2_5 G2.t9 VSS.t271 VSS.t72 nfet_03v3 ad=0.156p pd=1.12u as=0.156p ps=1.12u w=0.6u l=0.5u
X260 VSS C32_D.t54 C32_D.t55 VSS.t116 nfet_03v3 ad=0.156p pd=1.12u as=0.156p ps=1.12u w=0.6u l=0.5u
X261 SDn_2 SDn_2.t12 VSS.t506 VSS.t369 nfet_03v3 ad=0.156p pd=1.12u as=0.156p ps=1.12u w=0.6u l=0.5u
X262 TG_1.IN.t130 b6.t16 TG_1.IN.t130 VSS.t84 nfet_03v3 ad=0 pd=0 as=0.156p ps=1.12u w=0.6u l=0.5u
X263 TG_1.IN.t131 b6.t17 TG_1.IN.t131 VSS.t4 nfet_03v3 ad=0 pd=0 as=0.264p ps=2.08u w=0.6u l=0.5u
X264 TG_0.IN a_n2265_3941.t24 OUT+.t54 VDD.t288 pfet_03v3 ad=0.52p pd=2.52u as=0.52p ps=2.52u w=2u l=0.28u
X265 TG_1.IN.t74 TG_1.IN.t73 TG_1.IN.t74 VSS.t169 nfet_03v3 ad=0 pd=0 as=0.156p ps=1.12u w=0.6u l=0.5u
X266 VSS Balance_Inverter_2.Inverter_0.OUT b2.t1 VSS.t456 nfet_03v3 ad=0.152p pd=1.64u as=0.152p ps=1.64u w=0.22u l=0.28u
X267 OUT5 b5b.t9 TG_1.IN.t249 VSS.t96 nfet_03v3 ad=0.156p pd=1.12u as=0.156p ps=1.12u w=0.6u l=0.5u
X268 Balance_Inverter_3.Inverter_0.OUT B1.t1 VSS.t78 VSS.t77 nfet_03v3 ad=0.155p pd=1.64u as=0.155p ps=1.64u w=0.25u l=0.28u
X269 VSS SDn_2.t54 SD3_1.t30 VSS.t244 nfet_03v3 ad=0.156p pd=1.12u as=0.156p ps=1.12u w=0.6u l=0.5u
X270 VSS G2.t10 SD2_1.t13 VSS.t74 nfet_03v3 ad=0.156p pd=1.12u as=0.156p ps=1.12u w=0.6u l=0.5u
X271 SD3_1 SDn_2.t55 VSS.t248 VSS.t247 nfet_03v3 ad=0.156p pd=1.12u as=0.156p ps=1.12u w=0.6u l=0.5u
X272 TG_1.IN.t72 TG_1.IN.t71 TG_1.IN.t72 VSS.t168 nfet_03v3 ad=0.156p pd=1.12u as=0 ps=0 w=0.6u l=0.5u
X273 C32_U C32_U.t62 C32_D.t91 VSS.t116 nfet_03v3 ad=0.156p pd=1.12u as=0.156p ps=1.12u w=0.6u l=0.5u
X274 TG_1.IN.t132 b6.t18 TG_1.IN.t132 VSS.t7 nfet_03v3 ad=0 pd=0 as=0.264p ps=2.08u w=0.6u l=0.5u
X275 OUT5 IT.t54 SDn_1.t11 VSS.t307 nfet_03v3 ad=0.156p pd=1.12u as=0.156p ps=1.12u w=0.6u l=0.5u
X276 TG_1.IN b6b.t16 OUT6.t92 VSS.t6 nfet_03v3 ad=0.156p pd=1.12u as=0.156p ps=1.12u w=0.6u l=0.5u
X277 VSS G2.t11 SD2_4.t6 VSS.t282 nfet_03v3 ad=0.264p pd=2.08u as=0.156p ps=1.12u w=0.6u l=0.5u
X278 SD2_3 G2.t12 VSS.t285 VSS.t182 nfet_03v3 ad=0.264p pd=2.08u as=0.264p ps=2.08u w=0.6u l=0.5u
X279 OUT+ SEL_L.t35 TG_0.IN VSS.t342 nfet_03v3 ad=0.52p pd=2.52u as=0.52p ps=2.52u w=2u l=0.28u
X280 TG_1.IN SEL_L.t36 OUT-.t12 VSS.t343 nfet_03v3 ad=0.52p pd=2.52u as=0.52p ps=2.52u w=2u l=0.28u
X281 OUT+ SEL_L.t37 TG_0.IN VSS.t344 nfet_03v3 ad=0.52p pd=2.52u as=0.52p ps=2.52u w=2u l=0.28u
X282 Gc_1 Gc_1.t32 Gc_2.t86 VDD.t26 pfet_03v3 ad=0.156p pd=1.12u as=0.156p ps=1.12u w=0.6u l=0.5u
X283 TG_1.IN b6b.t17 OUT6.t93 VSS.t6 nfet_03v3 ad=0.156p pd=1.12u as=0.156p ps=1.12u w=0.6u l=0.5u
X284 SDn_2 SDn_2.t10 VSS.t505 VSS.t371 nfet_03v3 ad=0.156p pd=1.12u as=0.156p ps=1.12u w=0.6u l=0.5u
X285 TG_1.IN a_n2280_5855.t22 OUT-.t54 VDD.t310 pfet_03v3 ad=0.52p pd=2.52u as=0.52p ps=2.52u w=2u l=0.28u
X286 TG_1.IN.t99 b3.t3 TG_1.IN.t99 VSS.t94 nfet_03v3 ad=0.16p pd=1.64u as=0 ps=0 w=0.3u l=0.5u
X287 OUT4 b4b.t5 TG_1.IN.t255 VSS.t590 nfet_03v3 ad=0.156p pd=1.12u as=0.156p ps=1.12u w=0.6u l=0.5u
X288 TG_0.IN b6.t19 OUT6.t64 VSS.t66 nfet_03v3 ad=0.156p pd=1.12u as=0.156p ps=1.12u w=0.6u l=0.5u
X289 OUT+ SEL_L.t38 TG_0.IN VSS.t345 nfet_03v3 ad=0.52p pd=2.52u as=0.52p ps=2.52u w=2u l=0.28u
X290 SDc_2 Gc_1.t107 C32_U.t91 VDD.t0 pfet_03v3 ad=0.156p pd=1.12u as=0.156p ps=1.12u w=0.6u l=0.5u
X291 TG_1.IN.t70 TG_1.IN.t69 TG_1.IN.t70 VSS.t167 nfet_03v3 ad=0.156p pd=1.12u as=0 ps=0 w=0.6u l=0.5u
X292 TG_0.IN b6.t20 OUT6.t63 VSS.t66 nfet_03v3 ad=0.156p pd=1.12u as=0.156p ps=1.12u w=0.6u l=0.5u
X293 OUT6 b6b.t18 TG_1.IN.t243 VSS.t85 nfet_03v3 ad=0.156p pd=1.12u as=0.156p ps=1.12u w=0.6u l=0.5u
X294 OUT6 b6b.t19 TG_1.IN.t244 VSS.t8 nfet_03v3 ad=0.156p pd=1.12u as=0.156p ps=1.12u w=0.6u l=0.5u
X295 OUT+ a_n2265_3941.t25 TG_0.IN VDD.t295 pfet_03v3 ad=0.52p pd=2.52u as=0.52p ps=2.52u w=2u l=0.28u
X296 SDn_2 IT.t12 IT.t13 VSS.t370 nfet_03v3 ad=0.156p pd=1.12u as=0.156p ps=1.12u w=0.6u l=0.5u
X297 Gc_2 Gc_1.t88 Gc_1.t89 VDD.t101 pfet_03v3 ad=0.156p pd=1.12u as=0.156p ps=1.12u w=0.6u l=0.5u
X298 TG_0.IN TG_0.IN TG_0.IN VSS.t177 nfet_03v3 ad=0 pd=0 as=0.264p ps=2.08u w=0.6u l=0.5u
X299 OUT4 ITAIL.t7 SD2_5.t0 VSS.t124 nfet_03v3 ad=0.264p pd=2.08u as=0.156p ps=1.12u w=0.6u l=0.5u
X300 G2 ITAIL.t0 ITAIL.t1 VSS.t183 nfet_03v3 ad=0.156p pd=1.12u as=0.264p ps=2.08u w=0.6u l=0.5u