* NGSPICE file created from Current_Mirror_Top_flat.ext - technology: gf180mcuC

.subckt pex_Current_Mirror_Top ITAIL VSS G_source_dn G_source_up VDD G_sink_dn G_sink_up 
X0 VSS G2_1.t24 G2_1.t25 VSS.t16 nfet_03v3 ad=0.26p pd=1.52u as=0.26p ps=1.52u w=1u l=0.5u
X1 G2_1 ITAIL.t38 ITAIL.t39 VSS.t45 nfet_03v3 ad=0.26p pd=1.52u as=0.44p ps=2.88u w=1u l=0.5u
X2 VDD G1_2.t26 G1_2.t27 VDD.t5 pfet_03v3 ad=0.44p pd=2.88u as=0.26p ps=1.52u w=1u l=0.5u
X3 G2_1 ITAIL.t36 ITAIL.t37 VSS.t6 nfet_03v3 ad=0.26p pd=1.52u as=0.26p ps=1.52u w=1u l=0.5u
X4 G1_2 G1_2.t42 VDD.t86 VDD.t85 pfet_03v3 ad=0.26p pd=1.52u as=0.26p ps=1.52u w=1u l=0.5u
X5 SD0_1 G_sink_dn.t24 VSS.t96 VSS.t95 nfet_03v3 ad=0.156p pd=1.12u as=0.156p ps=1.12u w=0.6u l=0.5u
X6 ITAIL ITAIL.t34 G2_1.t57 VSS.t31 nfet_03v3 ad=0.26p pd=1.52u as=0.26p ps=1.52u w=1u l=0.5u
X7 SD2_1 G2_1.t60 VSS.t77 VSS.t53 nfet_03v3 ad=0.26p pd=1.52u as=0.26p ps=1.52u w=1u l=0.5u
X8 G_sink_dn G_sink_dn.t21 VSS.t89 VSS.t88 nfet_03v3 ad=0.156p pd=1.12u as=0.156p ps=1.12u w=0.6u l=0.5u
X9 G1_1 G1_1.t38 G1_2.t51 VDD.t72 pfet_03v3 ad=0.26p pd=1.52u as=0.26p ps=1.52u w=1u l=0.5u
X10 G1_2 G1_2.t44 VDD.t84 VDD.t83 pfet_03v3 ad=0.26p pd=1.52u as=0.26p ps=1.52u w=1u l=0.5u
X11 VDD G1_2.t24 G1_2.t25 VDD.t80 pfet_03v3 ad=0.26p pd=1.52u as=0.26p ps=1.52u w=1u l=0.5u
X12 ITAIL ITAIL.t32 G2_1.t56 VSS.t13 nfet_03v3 ad=0.26p pd=1.52u as=0.26p ps=1.52u w=1u l=0.5u
X13 G1_2 G1_1.t36 G1_1.t37 VDD.t59 pfet_03v3 ad=0.26p pd=1.52u as=0.26p ps=1.52u w=1u l=0.5u
X14 G_sink_dn G_sink_up.t24 G_sink_up.t25 VSS.t93 nfet_03v3 ad=0.156p pd=1.12u as=0.156p ps=1.12u w=0.6u l=0.5u
X15 VSS G2_1.t61 SD2_1.t18 VSS.t21 nfet_03v3 ad=0.26p pd=1.52u as=0.26p ps=1.52u w=1u l=0.5u
X16 VSS G_sink_dn.t26 SD0_1.t14 VSS.t99 nfet_03v3 ad=0.156p pd=1.12u as=0.156p ps=1.12u w=0.6u l=0.5u
X17 G_sink_up G1_1.t61 SD1_1.t9 VDD.t7 pfet_03v3 ad=0.104p pd=0.92u as=0.104p ps=0.92u w=0.4u l=0.5u
X18 VSS G2_1.t62 SD2_1.t17 VSS.t48 nfet_03v3 ad=0.26p pd=1.52u as=0.26p ps=1.52u w=1u l=0.5u
X19 VSS G2_1.t22 G2_1.t23 VSS.t62 nfet_03v3 ad=0.26p pd=1.52u as=0.26p ps=1.52u w=1u l=0.5u
X20 SD2_1 G2_1.t63 VSS.t70 VSS.t24 nfet_03v3 ad=0.26p pd=1.52u as=0.26p ps=1.52u w=1u l=0.5u
X21 VSS G2_1.t20 G2_1.t21 VSS.t26 nfet_03v3 ad=0.26p pd=1.52u as=0.26p ps=1.52u w=1u l=0.5u
X22 G_source_dn G_source_dn.t18 G_source_up.t23 VDD.t91 pfet_03v3 ad=0.156p pd=1.12u as=0.156p ps=1.12u w=0.6u l=0.5u
X23 G_sink_up G1_1.t62 SD1_1.t8 VDD.t8 pfet_03v3 ad=0.104p pd=0.92u as=0.104p ps=0.92u w=0.4u l=0.5u
X24 VSS G2_1.t64 SD2_1.t15 VSS.t2 nfet_03v3 ad=0.44p pd=2.88u as=0.26p ps=1.52u w=1u l=0.5u
X25 G_sink_up G_sink_up.t22 G_sink_dn.t3 VSS.t100 nfet_03v3 ad=0.264p pd=2.08u as=0.156p ps=1.12u w=0.6u l=0.5u
X26 G2_1 ITAIL.t30 ITAIL.t31 VSS.t24 nfet_03v3 ad=0.26p pd=1.52u as=0.26p ps=1.52u w=1u l=0.5u
X27 G1_1 G1_1.t34 G1_2.t57 VDD.t38 pfet_03v3 ad=0.26p pd=1.52u as=0.26p ps=1.52u w=1u l=0.5u
X28 VSS G_sink_dn.t19 G_sink_dn.t20 VSS.t85 nfet_03v3 ad=0.156p pd=1.12u as=0.156p ps=1.12u w=0.6u l=0.5u
X29 VSS G_sink_dn.t27 SD0_1.t13 VSS.t103 nfet_03v3 ad=0.156p pd=1.12u as=0.156p ps=1.12u w=0.6u l=0.5u
X30 SD1_1 G1_2.t62 VDD.t36 VDD.t35 pfet_03v3 ad=0.104p pd=0.92u as=0.176p ps=1.68u w=0.4u l=0.5u
X31 G1_1 ITAIL.t42 SD2_1.t35 VSS.t42 nfet_03v3 ad=0.26p pd=1.52u as=0.26p ps=1.52u w=1u l=0.5u
X32 SD2_1 G2_1.t65 VSS.t64 VSS.t57 nfet_03v3 ad=0.26p pd=1.52u as=0.26p ps=1.52u w=1u l=0.5u
X33 G1_1 G1_1.t32 G1_2.t56 VDD.t7 pfet_03v3 ad=0.26p pd=1.52u as=0.26p ps=1.52u w=1u l=0.5u
X34 VSS G2_1.t66 SD2_1.t13 VSS.t62 nfet_03v3 ad=0.26p pd=1.52u as=0.26p ps=1.52u w=1u l=0.5u
X35 SD2_1 ITAIL.t43 G1_1.t58 VSS.t6 nfet_03v3 ad=0.26p pd=1.52u as=0.26p ps=1.52u w=1u l=0.5u
X36 G2_1 ITAIL.t28 ITAIL.t29 VSS.t29 nfet_03v3 ad=0.26p pd=1.52u as=0.26p ps=1.52u w=1u l=0.5u
X37 G2_1 G2_1.t38 VSS.t61 VSS.t11 nfet_03v3 ad=0.26p pd=1.52u as=0.26p ps=1.52u w=1u l=0.5u
X38 G_source_up G_source_up.t14 VDD.t25 VDD.t24 pfet_03v3 ad=0.156p pd=1.12u as=0.264p ps=2.08u w=0.6u l=0.5u
X39 G_source_up G_source_up.t12 VDD.t31 VDD.t30 pfet_03v3 ad=0.156p pd=1.12u as=0.156p ps=1.12u w=0.6u l=0.5u
X40 G_sink_dn G_sink_up.t20 G_sink_up.t21 VSS.t111 nfet_03v3 ad=0.156p pd=1.12u as=0.264p ps=2.08u w=0.6u l=0.5u
X41 SD1_1 G1_2.t63 VDD.t34 VDD.t33 pfet_03v3 ad=0.104p pd=0.92u as=0.104p ps=0.92u w=0.4u l=0.5u
X42 G1_1 G1_1.t30 G1_2.t55 VDD.t8 pfet_03v3 ad=0.26p pd=1.52u as=0.26p ps=1.52u w=1u l=0.5u
X43 VSS G2_1.t18 G2_1.t19 VSS.t37 nfet_03v3 ad=0.26p pd=1.52u as=0.26p ps=1.52u w=1u l=0.5u
X44 SD0_1 G_sink_up.t27 G_source_dn.t7 VSS.t97 nfet_03v3 ad=0.156p pd=1.12u as=0.156p ps=1.12u w=0.6u l=0.5u
X45 G1_2 G1_2.t40 VDD.t79 VDD.t35 pfet_03v3 ad=0.26p pd=1.52u as=0.44p ps=2.88u w=1u l=0.5u
X46 G2_1 G2_1.t30 VSS.t58 VSS.t57 nfet_03v3 ad=0.26p pd=1.52u as=0.26p ps=1.52u w=1u l=0.5u
X47 G1_1 ITAIL.t44 SD2_1.t34 VSS.t13 nfet_03v3 ad=0.26p pd=1.52u as=0.26p ps=1.52u w=1u l=0.5u
X48 G1_2 G1_1.t28 G1_1.t29 VDD.t45 pfet_03v3 ad=0.26p pd=1.52u as=0.26p ps=1.52u w=1u l=0.5u
X49 VSS G2_1.t16 G2_1.t17 VSS.t42 nfet_03v3 ad=0.26p pd=1.52u as=0.26p ps=1.52u w=1u l=0.5u
X50 G_source_up G_source_dn.t16 G_source_dn.t17 VDD.t90 pfet_03v3 ad=0.156p pd=1.12u as=0.156p ps=1.12u w=0.6u l=0.5u
X51 G2_1 ITAIL.t26 ITAIL.t27 VSS.t8 nfet_03v3 ad=0.26p pd=1.52u as=0.26p ps=1.52u w=1u l=0.5u
X52 VSS G_sink_dn.t28 SD0_1.t12 VSS.t80 nfet_03v3 ad=0.156p pd=1.12u as=0.156p ps=1.12u w=0.6u l=0.5u
X53 G_sink_dn G_sink_up.t18 G_sink_up.t19 VSS.t109 nfet_03v3 ad=0.156p pd=1.12u as=0.156p ps=1.12u w=0.6u l=0.5u
X54 G1_2 G1_2.t32 VDD.t77 VDD.t33 pfet_03v3 ad=0.26p pd=1.52u as=0.26p ps=1.52u w=1u l=0.5u
X55 G1_1 ITAIL.t45 SD2_1.t33 VSS.t31 nfet_03v3 ad=0.26p pd=1.52u as=0.26p ps=1.52u w=1u l=0.5u
X56 ITAIL ITAIL.t24 G2_1.t52 VSS.t21 nfet_03v3 ad=0.26p pd=1.52u as=0.26p ps=1.52u w=1u l=0.5u
X57 G1_1 G1_1.t26 G1_2.t58 VDD.t41 pfet_03v3 ad=0.26p pd=1.52u as=0.26p ps=1.52u w=1u l=0.5u
X58 G_sink_up G1_1.t67 SD1_1.t7 VDD.t4 pfet_03v3 ad=0.104p pd=0.92u as=0.104p ps=0.92u w=0.4u l=0.5u
X59 G1_1 G1_1.t24 G1_2.t5 VDD.t6 pfet_03v3 ad=0.26p pd=1.52u as=0.26p ps=1.52u w=1u l=0.5u
X60 G_sink_up G_sink_up.t16 G_sink_dn.t6 VSS.t106 nfet_03v3 ad=0.156p pd=1.12u as=0.156p ps=1.12u w=0.6u l=0.5u
X61 G2_1 G2_1.t32 VSS.t54 VSS.t53 nfet_03v3 ad=0.26p pd=1.52u as=0.26p ps=1.52u w=1u l=0.5u
X62 G1_1 ITAIL.t47 SD2_1.t32 VSS.t26 nfet_03v3 ad=0.26p pd=1.52u as=0.26p ps=1.52u w=1u l=0.5u
X63 G_source_dn G_sink_up.t29 SD0_1.t3 VSS.t98 nfet_03v3 ad=0.264p pd=2.08u as=0.156p ps=1.12u w=0.6u l=0.5u
X64 VDD G1_2.t66 SD1_1.t17 VDD.t69 pfet_03v3 ad=0.104p pd=0.92u as=0.104p ps=0.92u w=0.4u l=0.5u
X65 SD0_1 G_sink_up.t30 G_source_dn.t5 VSS.t112 nfet_03v3 ad=0.156p pd=1.12u as=0.156p ps=1.12u w=0.6u l=0.5u
X66 SD2_1 G2_1.t70 VSS.t52 VSS.t45 nfet_03v3 ad=0.26p pd=1.52u as=0.44p ps=2.88u w=1u l=0.5u
X67 SD2_1 ITAIL.t48 G1_1.t54 VSS.t53 nfet_03v3 ad=0.26p pd=1.52u as=0.26p ps=1.52u w=1u l=0.5u
X68 G1_1 G1_1.t22 G1_2.t4 VDD.t5 pfet_03v3 ad=0.44p pd=2.88u as=0.26p ps=1.52u w=1u l=0.5u
X69 SD1_1 G1_2.t67 VDD.t75 VDD.t67 pfet_03v3 ad=0.104p pd=0.92u as=0.104p ps=0.92u w=0.4u l=0.5u
X70 G2_1 G2_1.t0 VSS.t51 VSS.t0 nfet_03v3 ad=0.26p pd=1.52u as=0.26p ps=1.52u w=1u l=0.5u
X71 VDD G_source_up.t10 G_source_up.t11 VDD.t15 pfet_03v3 ad=0.156p pd=1.12u as=0.156p ps=1.12u w=0.6u l=0.5u
X72 VSS G2_1.t14 G2_1.t15 VSS.t48 nfet_03v3 ad=0.26p pd=1.52u as=0.26p ps=1.52u w=1u l=0.5u
X73 VDD G1_2.t22 G1_2.t23 VDD.t72 pfet_03v3 ad=0.26p pd=1.52u as=0.26p ps=1.52u w=1u l=0.5u
X74 SD1_1 G1_1.t70 G_sink_up.t4 VDD.t0 pfet_03v3 ad=0.104p pd=0.92u as=0.104p ps=0.92u w=0.4u l=0.5u
X75 G1_1 G1_1.t20 G1_2.t3 VDD.t4 pfet_03v3 ad=0.26p pd=1.52u as=0.26p ps=1.52u w=1u l=0.5u
X76 G_sink_dn G_sink_up.t14 G_sink_up.t15 VSS.t88 nfet_03v3 ad=0.156p pd=1.12u as=0.156p ps=1.12u w=0.6u l=0.5u
X77 SD2_1 G2_1.t72 VSS.t47 VSS.t29 nfet_03v3 ad=0.26p pd=1.52u as=0.26p ps=1.52u w=1u l=0.5u
X78 SD1_1 G1_1.t72 G_sink_up.t3 VDD.t2 pfet_03v3 ad=0.104p pd=0.92u as=0.104p ps=0.92u w=0.4u l=0.5u
X79 VDD G1_2.t20 G1_2.t21 VDD.t69 pfet_03v3 ad=0.26p pd=1.52u as=0.26p ps=1.52u w=1u l=0.5u
X80 G1_1 ITAIL.t49 SD2_1.t31 VSS.t21 nfet_03v3 ad=0.26p pd=1.52u as=0.26p ps=1.52u w=1u l=0.5u
X81 SD0_1 G_sink_dn.t29 VSS.t84 VSS.t83 nfet_03v3 ad=0.156p pd=1.12u as=0.264p ps=2.08u w=0.6u l=0.5u
X82 G2_1 ITAIL.t22 ITAIL.t23 VSS.t4 nfet_03v3 ad=0.26p pd=1.52u as=0.26p ps=1.52u w=1u l=0.5u
X83 G1_1 ITAIL.t50 SD2_1.t30 VSS.t48 nfet_03v3 ad=0.26p pd=1.52u as=0.26p ps=1.52u w=1u l=0.5u
X84 G_source_up G_source_dn.t14 G_source_dn.t15 VDD.t89 pfet_03v3 ad=0.156p pd=1.12u as=0.156p ps=1.12u w=0.6u l=0.5u
X85 G2_1 G2_1.t34 VSS.t46 VSS.t45 nfet_03v3 ad=0.26p pd=1.52u as=0.44p ps=2.88u w=1u l=0.5u
X86 G_source_up G_source_dn.t12 G_source_dn.t13 VDD.t27 pfet_03v3 ad=0.156p pd=1.12u as=0.156p ps=1.12u w=0.6u l=0.5u
X87 G_sink_dn G_sink_dn.t17 VSS.t94 VSS.t93 nfet_03v3 ad=0.156p pd=1.12u as=0.156p ps=1.12u w=0.6u l=0.5u
X88 SD1_1 G1_1.t73 G_sink_up.t2 VDD.t1 pfet_03v3 ad=0.104p pd=0.92u as=0.104p ps=0.92u w=0.4u l=0.5u
X89 G1_2 G1_2.t30 VDD.t68 VDD.t67 pfet_03v3 ad=0.26p pd=1.52u as=0.26p ps=1.52u w=1u l=0.5u
X90 ITAIL ITAIL.t20 G2_1.t47 VSS.t16 nfet_03v3 ad=0.26p pd=1.52u as=0.26p ps=1.52u w=1u l=0.5u
X91 G1_2 G1_1.t18 G1_1.t19 VDD.t0 pfet_03v3 ad=0.26p pd=1.52u as=0.26p ps=1.52u w=1u l=0.5u
X92 G2_1 G2_1.t2 VSS.t7 VSS.t6 nfet_03v3 ad=0.26p pd=1.52u as=0.26p ps=1.52u w=1u l=0.5u
X93 G1_1 ITAIL.t52 SD2_1.t29 VSS.t2 nfet_03v3 ad=0.44p pd=2.88u as=0.26p ps=1.52u w=1u l=0.5u
X94 G1_2 G1_1.t16 G1_1.t17 VDD.t2 pfet_03v3 ad=0.26p pd=1.52u as=0.26p ps=1.52u w=1u l=0.5u
X95 ITAIL ITAIL.t18 G2_1.t46 VSS.t2 nfet_03v3 ad=0.44p pd=2.88u as=0.26p ps=1.52u w=1u l=0.5u
X96 VSS G2_1.t75 SD2_1.t10 VSS.t42 nfet_03v3 ad=0.26p pd=1.52u as=0.26p ps=1.52u w=1u l=0.5u
X97 G1_1 ITAIL.t54 SD2_1.t28 VSS.t16 nfet_03v3 ad=0.26p pd=1.52u as=0.26p ps=1.52u w=1u l=0.5u
X98 G_source_dn G_source_dn.t22 G_source_up.t19 VDD.t3 pfet_03v3 ad=0.156p pd=1.12u as=0.156p ps=1.12u w=0.6u l=0.5u
X99 G_source_dn G_sink_up.t31 SD0_1.t7 VSS.t103 nfet_03v3 ad=0.156p pd=1.12u as=0.156p ps=1.12u w=0.6u l=0.5u
X100 G1_2 G1_1.t14 G1_1.t15 VDD.t1 pfet_03v3 ad=0.26p pd=1.52u as=0.26p ps=1.52u w=1u l=0.5u
X101 VSS G2_1.t12 G2_1.t13 VSS.t13 nfet_03v3 ad=0.26p pd=1.52u as=0.26p ps=1.52u w=1u l=0.5u
X102 VDD G1_2.t18 G1_2.t19 VDD.t7 pfet_03v3 ad=0.26p pd=1.52u as=0.26p ps=1.52u w=1u l=0.5u
X103 VSS G2_1.t76 SD2_1.t9 VSS.t37 nfet_03v3 ad=0.26p pd=1.52u as=0.26p ps=1.52u w=1u l=0.5u
X104 VSS G_sink_dn.t15 G_sink_dn.t16 VSS.t90 nfet_03v3 ad=0.156p pd=1.12u as=0.156p ps=1.12u w=0.6u l=0.5u
X105 ITAIL ITAIL.t16 G2_1.t45 VSS.t62 nfet_03v3 ad=0.26p pd=1.52u as=0.26p ps=1.52u w=1u l=0.5u
X106 VDD G1_2.t16 G1_2.t17 VDD.t8 pfet_03v3 ad=0.26p pd=1.52u as=0.26p ps=1.52u w=1u l=0.5u
X107 G1_2 G1_1.t12 G1_1.t13 VDD.t35 pfet_03v3 ad=0.26p pd=1.52u as=0.44p ps=2.88u w=1u l=0.5u
X108 ITAIL ITAIL.t14 G2_1.t44 VSS.t26 nfet_03v3 ad=0.26p pd=1.52u as=0.26p ps=1.52u w=1u l=0.5u
X109 VSS G2_1.t10 G2_1.t11 VSS.t31 nfet_03v3 ad=0.26p pd=1.52u as=0.26p ps=1.52u w=1u l=0.5u
X110 SD2_1 G2_1.t77 VSS.t34 VSS.t4 nfet_03v3 ad=0.26p pd=1.52u as=0.26p ps=1.52u w=1u l=0.5u
X111 SD0_1 G_sink_dn.t31 VSS.t117 VSS.t97 nfet_03v3 ad=0.156p pd=1.12u as=0.156p ps=1.12u w=0.6u l=0.5u
X112 SD1_1 G1_1.t74 G_sink_up.t1 VDD.t85 pfet_03v3 ad=0.104p pd=0.92u as=0.104p ps=0.92u w=0.4u l=0.5u
X113 SD2_1 ITAIL.t57 G1_1.t49 VSS.t11 nfet_03v3 ad=0.26p pd=1.52u as=0.26p ps=1.52u w=1u l=0.5u
X114 SD2_1 ITAIL.t58 G1_1.t48 VSS.t8 nfet_03v3 ad=0.26p pd=1.52u as=0.26p ps=1.52u w=1u l=0.5u
X115 VSS G2_1.t78 SD2_1.t7 VSS.t31 nfet_03v3 ad=0.26p pd=1.52u as=0.26p ps=1.52u w=1u l=0.5u
X116 G_source_up G_source_dn.t10 G_source_dn.t11 VDD.t9 pfet_03v3 ad=0.156p pd=1.12u as=0.156p ps=1.12u w=0.6u l=0.5u
X117 SD1_1 G1_1.t75 G_sink_up.t0 VDD.t83 pfet_03v3 ad=0.104p pd=0.92u as=0.104p ps=0.92u w=0.4u l=0.5u
X118 G2_1 G2_1.t36 VSS.t30 VSS.t29 nfet_03v3 ad=0.26p pd=1.52u as=0.26p ps=1.52u w=1u l=0.5u
X119 G2_1 ITAIL.t12 ITAIL.t13 VSS.t11 nfet_03v3 ad=0.26p pd=1.52u as=0.26p ps=1.52u w=1u l=0.5u
X120 G1_2 G1_1.t10 G1_1.t11 VDD.t33 pfet_03v3 ad=0.26p pd=1.52u as=0.26p ps=1.52u w=1u l=0.5u
X121 G_sink_dn G_sink_dn.t13 VSS.t110 VSS.t109 nfet_03v3 ad=0.156p pd=1.12u as=0.156p ps=1.12u w=0.6u l=0.5u
X122 G_sink_up G1_1.t76 SD1_1.t1 VDD.t80 pfet_03v3 ad=0.104p pd=0.92u as=0.104p ps=0.92u w=0.4u l=0.5u
X123 SD1_1 G1_2.t69 VDD.t62 VDD.t59 pfet_03v3 ad=0.104p pd=0.92u as=0.104p ps=0.92u w=0.4u l=0.5u
X124 SD2_1 ITAIL.t59 G1_1.t47 VSS.t0 nfet_03v3 ad=0.26p pd=1.52u as=0.26p ps=1.52u w=1u l=0.5u
X125 G_source_up G_source_up.t8 VDD.t14 VDD.t13 pfet_03v3 ad=0.156p pd=1.12u as=0.156p ps=1.12u w=0.6u l=0.5u
X126 SD0_1 G_sink_up.t32 G_source_dn.t3 VSS.t95 nfet_03v3 ad=0.156p pd=1.12u as=0.156p ps=1.12u w=0.6u l=0.5u
X127 G1_2 G1_1.t8 G1_1.t9 VDD.t85 pfet_03v3 ad=0.26p pd=1.52u as=0.26p ps=1.52u w=1u l=0.5u
X128 VSS G2_1.t80 SD2_1.t6 VSS.t26 nfet_03v3 ad=0.26p pd=1.52u as=0.26p ps=1.52u w=1u l=0.5u
X129 G_source_dn G_source_dn.t20 G_source_up.t17 VDD.t92 pfet_03v3 ad=0.156p pd=1.12u as=0.156p ps=1.12u w=0.6u l=0.5u
X130 SD2_1 ITAIL.t60 G1_1.t46 VSS.t45 nfet_03v3 ad=0.26p pd=1.52u as=0.44p ps=2.88u w=1u l=0.5u
X131 G_source_up G_source_up.t6 VDD.t29 VDD.t28 pfet_03v3 ad=0.156p pd=1.12u as=0.156p ps=1.12u w=0.6u l=0.5u
X132 G2_1 ITAIL.t10 ITAIL.t11 VSS.t57 nfet_03v3 ad=0.26p pd=1.52u as=0.26p ps=1.52u w=1u l=0.5u
X133 G2_1 G2_1.t4 VSS.t25 VSS.t24 nfet_03v3 ad=0.26p pd=1.52u as=0.26p ps=1.52u w=1u l=0.5u
X134 VSS G_sink_dn.t11 G_sink_dn.t12 VSS.t106 nfet_03v3 ad=0.156p pd=1.12u as=0.156p ps=1.12u w=0.6u l=0.5u
X135 G1_2 G1_1.t6 G1_1.t7 VDD.t83 pfet_03v3 ad=0.26p pd=1.52u as=0.26p ps=1.52u w=1u l=0.5u
X136 ITAIL ITAIL.t8 G2_1.t41 VSS.t42 nfet_03v3 ad=0.26p pd=1.52u as=0.26p ps=1.52u w=1u l=0.5u
X137 VDD G1_2.t70 SD1_1.t14 VDD.t38 pfet_03v3 ad=0.104p pd=0.92u as=0.104p ps=0.92u w=0.4u l=0.5u
X138 G1_1 G1_1.t4 G1_2.t48 VDD.t80 pfet_03v3 ad=0.26p pd=1.52u as=0.26p ps=1.52u w=1u l=0.5u
X139 G1_2 G1_2.t6 VDD.t60 VDD.t59 pfet_03v3 ad=0.26p pd=1.52u as=0.26p ps=1.52u w=1u l=0.5u
X140 G_source_dn G_sink_up.t33 SD0_1.t5 VSS.t99 nfet_03v3 ad=0.156p pd=1.12u as=0.156p ps=1.12u w=0.6u l=0.5u
X141 SD2_1 ITAIL.t62 G1_1.t45 VSS.t29 nfet_03v3 ad=0.26p pd=1.52u as=0.26p ps=1.52u w=1u l=0.5u
X142 VSS G2_1.t8 G2_1.t9 VSS.t21 nfet_03v3 ad=0.26p pd=1.52u as=0.26p ps=1.52u w=1u l=0.5u
X143 VDD G1_2.t14 G1_2.t15 VDD.t4 pfet_03v3 ad=0.26p pd=1.52u as=0.26p ps=1.52u w=1u l=0.5u
X144 VDD G_source_up.t4 G_source_up.t5 VDD.t10 pfet_03v3 ad=0.264p pd=2.08u as=0.156p ps=1.12u w=0.6u l=0.5u
X145 G1_1 G1_1.t2 G1_2.t54 VDD.t69 pfet_03v3 ad=0.26p pd=1.52u as=0.26p ps=1.52u w=1u l=0.5u
X146 ITAIL ITAIL.t6 G2_1.t40 VSS.t37 nfet_03v3 ad=0.26p pd=1.52u as=0.26p ps=1.52u w=1u l=0.5u
X147 VSS G_sink_dn.t9 G_sink_dn.t10 VSS.t100 nfet_03v3 ad=0.264p pd=2.08u as=0.156p ps=1.12u w=0.6u l=0.5u
X148 G_sink_up G_sink_up.t12 G_sink_dn.t0 VSS.t85 nfet_03v3 ad=0.156p pd=1.12u as=0.156p ps=1.12u w=0.6u l=0.5u
X149 SD2_1 ITAIL.t64 G1_1.t44 VSS.t24 nfet_03v3 ad=0.26p pd=1.52u as=0.26p ps=1.52u w=1u l=0.5u
X150 SD0_1 G_sink_up.t35 G_source_dn.t1 VSS.t83 nfet_03v3 ad=0.156p pd=1.12u as=0.264p ps=2.08u w=0.6u l=0.5u
X151 VDD G1_2.t12 G1_2.t13 VDD.t38 pfet_03v3 ad=0.26p pd=1.52u as=0.26p ps=1.52u w=1u l=0.5u
X152 G1_2 G1_1.t0 G1_1.t1 VDD.t67 pfet_03v3 ad=0.26p pd=1.52u as=0.26p ps=1.52u w=1u l=0.5u
X153 G1_2 G1_2.t34 VDD.t54 VDD.t0 pfet_03v3 ad=0.26p pd=1.52u as=0.26p ps=1.52u w=1u l=0.5u
X154 SD1_1 G1_2.t73 VDD.t53 VDD.t45 pfet_03v3 ad=0.104p pd=0.92u as=0.104p ps=0.92u w=0.4u l=0.5u
X155 G2_1 ITAIL.t4 ITAIL.t5 VSS.t0 nfet_03v3 ad=0.26p pd=1.52u as=0.26p ps=1.52u w=1u l=0.5u
X156 G2_1 G2_1.t28 VSS.t18 VSS.t8 nfet_03v3 ad=0.26p pd=1.52u as=0.26p ps=1.52u w=1u l=0.5u
X157 SD2_1 ITAIL.t65 G1_1.t43 VSS.t57 nfet_03v3 ad=0.26p pd=1.52u as=0.26p ps=1.52u w=1u l=0.5u
X158 G1_2 G1_2.t28 VDD.t52 VDD.t2 pfet_03v3 ad=0.26p pd=1.52u as=0.26p ps=1.52u w=1u l=0.5u
X159 G_sink_dn G_sink_dn.t7 VSS.t113 VSS.t111 nfet_03v3 ad=0.156p pd=1.12u as=0.264p ps=2.08u w=0.6u l=0.5u
X160 G1_1 ITAIL.t66 SD2_1.t27 VSS.t62 nfet_03v3 ad=0.26p pd=1.52u as=0.26p ps=1.52u w=1u l=0.5u
X161 SD2_1 G2_1.t83 VSS.t20 VSS.t6 nfet_03v3 ad=0.26p pd=1.52u as=0.26p ps=1.52u w=1u l=0.5u
X162 VSS G2_1.t84 SD2_1.t4 VSS.t16 nfet_03v3 ad=0.26p pd=1.52u as=0.26p ps=1.52u w=1u l=0.5u
X163 G2_1 G2_1.t26 VSS.t5 VSS.t4 nfet_03v3 ad=0.26p pd=1.52u as=0.26p ps=1.52u w=1u l=0.5u
X164 G1_1 ITAIL.t67 SD2_1.t26 VSS.t37 nfet_03v3 ad=0.26p pd=1.52u as=0.26p ps=1.52u w=1u l=0.5u
X165 G1_2 G1_2.t36 VDD.t51 VDD.t1 pfet_03v3 ad=0.26p pd=1.52u as=0.26p ps=1.52u w=1u l=0.5u
X166 VDD G1_2.t76 SD1_1.t12 VDD.t41 pfet_03v3 ad=0.104p pd=0.92u as=0.104p ps=0.92u w=0.4u l=0.5u
X167 G2_1 ITAIL.t2 ITAIL.t3 VSS.t53 nfet_03v3 ad=0.26p pd=1.52u as=0.26p ps=1.52u w=1u l=0.5u
X168 VDD G1_2.t77 SD1_1.t11 VDD.t6 pfet_03v3 ad=0.104p pd=0.92u as=0.104p ps=0.92u w=0.4u l=0.5u
X169 VDD G_source_up.t2 G_source_up.t3 VDD.t21 pfet_03v3 ad=0.156p pd=1.12u as=0.156p ps=1.12u w=0.6u l=0.5u
X170 G1_2 G1_2.t38 VDD.t46 VDD.t45 pfet_03v3 ad=0.26p pd=1.52u as=0.26p ps=1.52u w=1u l=0.5u
X171 SD2_1 ITAIL.t68 G1_1.t40 VSS.t4 nfet_03v3 ad=0.26p pd=1.52u as=0.26p ps=1.52u w=1u l=0.5u
X172 G_source_dn G_sink_up.t36 SD0_1.t1 VSS.t80 nfet_03v3 ad=0.156p pd=1.12u as=0.156p ps=1.12u w=0.6u l=0.5u
X173 G_sink_up G_sink_up.t10 G_sink_dn.t23 VSS.t90 nfet_03v3 ad=0.156p pd=1.12u as=0.156p ps=1.12u w=0.6u l=0.5u
X174 VSS G2_1.t86 SD2_1.t3 VSS.t13 nfet_03v3 ad=0.26p pd=1.52u as=0.26p ps=1.52u w=1u l=0.5u
X175 SD2_1 G2_1.t87 VSS.t12 VSS.t11 nfet_03v3 ad=0.26p pd=1.52u as=0.26p ps=1.52u w=1u l=0.5u
X176 VSS G2_1.t6 G2_1.t7 VSS.t2 nfet_03v3 ad=0.44p pd=2.88u as=0.26p ps=1.52u w=1u l=0.5u
X177 SD2_1 G2_1.t88 VSS.t9 VSS.t8 nfet_03v3 ad=0.26p pd=1.52u as=0.26p ps=1.52u w=1u l=0.5u
X178 VDD G_source_up.t0 G_source_up.t1 VDD.t18 pfet_03v3 ad=0.156p pd=1.12u as=0.156p ps=1.12u w=0.6u l=0.5u
X179 VDD G1_2.t79 SD1_1.t10 VDD.t5 pfet_03v3 ad=0.176p pd=1.68u as=0.104p ps=0.92u w=0.4u l=0.5u
X180 ITAIL ITAIL.t0 G2_1.t49 VSS.t48 nfet_03v3 ad=0.26p pd=1.52u as=0.26p ps=1.52u w=1u l=0.5u
X181 G_source_dn G_source_dn.t8 G_source_up.t16 VDD.t26 pfet_03v3 ad=0.156p pd=1.12u as=0.156p ps=1.12u w=0.6u l=0.5u
X182 G_sink_up G1_1.t79 SD1_1.t0 VDD.t72 pfet_03v3 ad=0.104p pd=0.92u as=0.104p ps=0.92u w=0.4u l=0.5u
X183 VDD G1_2.t10 G1_2.t11 VDD.t41 pfet_03v3 ad=0.26p pd=1.52u as=0.26p ps=1.52u w=1u l=0.5u
X184 VSS G_sink_dn.t34 SD0_1.t9 VSS.t98 nfet_03v3 ad=0.264p pd=2.08u as=0.156p ps=1.12u w=0.6u l=0.5u
X185 VDD G1_2.t8 G1_2.t9 VDD.t6 pfet_03v3 ad=0.26p pd=1.52u as=0.26p ps=1.52u w=1u l=0.5u
X186 SD0_1 G_sink_dn.t35 VSS.t116 VSS.t112 nfet_03v3 ad=0.156p pd=1.12u as=0.156p ps=1.12u w=0.6u l=0.5u
X187 SD2_1 G2_1.t89 VSS.t1 VSS.t0 nfet_03v3 ad=0.26p pd=1.52u as=0.26p ps=1.52u w=1u l=0.5u
R0 G2_1.n133 G2_1.n132 74.2622
R1 G2_1.n26 G2_1.n23 71.202
R2 G2_1.n28 G2_1.t6 37.4414
R3 G2_1.n116 G2_1.t34 37.4414
R4 G2_1.n132 G2_1.n131 21.0894
R5 G2_1.n131 G2_1.n130 21.0894
R6 G2_1.n130 G2_1.n129 21.0894
R7 G2_1.n129 G2_1.n128 21.0894
R8 G2_1.n128 G2_1.n127 21.0894
R9 G2_1.n127 G2_1.n126 21.0894
R10 G2_1.n126 G2_1.n125 21.0894
R11 G2_1.n125 G2_1.n124 21.0894
R12 G2_1.n124 G2_1.n123 21.0894
R13 G2_1.n15 G2_1.n14 21.0894
R14 G2_1.n16 G2_1.n15 21.0894
R15 G2_1.n17 G2_1.n16 21.0894
R16 G2_1.n18 G2_1.n17 21.0894
R17 G2_1.n19 G2_1.n18 21.0894
R18 G2_1.n20 G2_1.n19 21.0894
R19 G2_1.n21 G2_1.n20 21.0894
R20 G2_1.n22 G2_1.n21 21.0894
R21 G2_1.n23 G2_1.n22 21.0894
R22 G2_1.n131 G2_1.t66 16.5715
R23 G2_1.n130 G2_1.t87 16.5715
R24 G2_1.n127 G2_1.t78 16.5715
R25 G2_1.n126 G2_1.t63 16.5715
R26 G2_1.n123 G2_1.t84 16.5715
R27 G2_1.n14 G2_1.t88 16.5715
R28 G2_1.n17 G2_1.t80 16.5715
R29 G2_1.n18 G2_1.t65 16.5715
R30 G2_1.n21 G2_1.t75 16.5715
R31 G2_1.n22 G2_1.t89 16.5715
R32 G2_1.n132 G2_1.t70 16.3525
R33 G2_1.n129 G2_1.t61 16.3525
R34 G2_1.n128 G2_1.t77 16.3525
R35 G2_1.n125 G2_1.t76 16.3525
R36 G2_1.n124 G2_1.t60 16.3525
R37 G2_1.n15 G2_1.t62 16.3525
R38 G2_1.n16 G2_1.t83 16.3525
R39 G2_1.n19 G2_1.t86 16.3525
R40 G2_1.n20 G2_1.t72 16.3525
R41 G2_1.n23 G2_1.t64 16.3525
R42 G2_1.n104 G2_1.t8 14.0165
R43 G2_1.n101 G2_1.t26 14.0165
R44 G2_1.n92 G2_1.t10 14.0165
R45 G2_1.n89 G2_1.t4 14.0165
R46 G2_1.n82 G2_1.t18 14.0165
R47 G2_1.n79 G2_1.t32 14.0165
R48 G2_1.n70 G2_1.t24 14.0165
R49 G2_1.n67 G2_1.t28 14.0165
R50 G2_1.n62 G2_1.t14 14.0165
R51 G2_1.n59 G2_1.t2 14.0165
R52 G2_1.n52 G2_1.t20 14.0165
R53 G2_1.n49 G2_1.t30 14.0165
R54 G2_1.n44 G2_1.t12 14.0165
R55 G2_1.n41 G2_1.t36 14.0165
R56 G2_1.n32 G2_1.t16 14.0165
R57 G2_1.n29 G2_1.t0 14.0165
R58 G2_1.n113 G2_1.t38 14.0165
R59 G2_1.n115 G2_1.t22 13.7245
R60 G2_1.n30 G2_1.n29 4.0005
R61 G2_1.n33 G2_1.n32 4.0005
R62 G2_1.n42 G2_1.n41 4.0005
R63 G2_1.n45 G2_1.n44 4.0005
R64 G2_1.n50 G2_1.n49 4.0005
R65 G2_1.n53 G2_1.n52 4.0005
R66 G2_1.n60 G2_1.n59 4.0005
R67 G2_1.n63 G2_1.n62 4.0005
R68 G2_1.n68 G2_1.n67 4.0005
R69 G2_1.n71 G2_1.n70 4.0005
R70 G2_1.n80 G2_1.n79 4.0005
R71 G2_1.n83 G2_1.n82 4.0005
R72 G2_1.n90 G2_1.n89 4.0005
R73 G2_1.n93 G2_1.n92 4.0005
R74 G2_1.n102 G2_1.n101 4.0005
R75 G2_1.n105 G2_1.n104 4.0005
R76 G2_1.n114 G2_1.n113 4.0005
R77 G2_1.n118 G2_1.n117 4.0005
R78 G2_1.n26 G2_1.n25 3.58493
R79 G2_1.n108 G2_1.n107 3.57898
R80 G2_1.n86 G2_1.n85 3.57507
R81 G2_1.n133 G2_1.n122 3.5665
R82 G2_1.n46 G2_1.n11 3.53988
R83 G2_1.n99 G2_1.n98 3.53861
R84 G2_1.n77 G2_1.n76 3.53721
R85 G2_1.n74 G2_1.n73 3.53202
R86 G2_1.n96 G2_1.n95 3.53202
R87 G2_1.n87 G2_1.n1 3.52224
R88 G2_1.n65 G2_1.n3 3.51637
R89 G2_1.n47 G2_1.n9 3.51246
R90 G2_1.n57 G2_1.n56 3.51057
R91 G2_1.n36 G2_1.n35 3.50854
R92 G2_1.n111 G2_1.n110 3.50645
R93 G2_1.n39 G2_1.n38 3.49699
R94 G2_1.n64 G2_1.n5 3.49116
R95 G2_1.n54 G2_1.n7 3.4806
R96 G2_1.n134 G2_1.n120 3.46399
R97 G2_1.n27 G2_1.n13 3.45496
R98 G2_1.n104 G2_1.n103 2.3365
R99 G2_1.n101 G2_1.n100 2.3365
R100 G2_1.n92 G2_1.n91 2.3365
R101 G2_1.n89 G2_1.n88 2.3365
R102 G2_1.n82 G2_1.n81 2.3365
R103 G2_1.n79 G2_1.n78 2.3365
R104 G2_1.n70 G2_1.n69 2.3365
R105 G2_1.n67 G2_1.n66 2.3365
R106 G2_1.n62 G2_1.n61 2.3365
R107 G2_1.n59 G2_1.n58 2.3365
R108 G2_1.n52 G2_1.n51 2.3365
R109 G2_1.n49 G2_1.n48 2.3365
R110 G2_1.n44 G2_1.n43 2.3365
R111 G2_1.n41 G2_1.n40 2.3365
R112 G2_1.n32 G2_1.n31 2.3365
R113 G2_1.n29 G2_1.n28 2.3365
R114 G2_1.n113 G2_1.n112 2.3365
R115 G2_1.n117 G2_1.n116 2.3365
R116 G2_1.n107 G2_1.t9 1.6385
R117 G2_1.n107 G2_1.n106 1.6385
R118 G2_1.n110 G2_1.t52 1.6385
R119 G2_1.n110 G2_1.n109 1.6385
R120 G2_1.n95 G2_1.t11 1.6385
R121 G2_1.n95 G2_1.n94 1.6385
R122 G2_1.n98 G2_1.t57 1.6385
R123 G2_1.n98 G2_1.n97 1.6385
R124 G2_1.n85 G2_1.t19 1.6385
R125 G2_1.n85 G2_1.n84 1.6385
R126 G2_1.n1 G2_1.t40 1.6385
R127 G2_1.n1 G2_1.n0 1.6385
R128 G2_1.n73 G2_1.t25 1.6385
R129 G2_1.n73 G2_1.n72 1.6385
R130 G2_1.n76 G2_1.t47 1.6385
R131 G2_1.n76 G2_1.n75 1.6385
R132 G2_1.n5 G2_1.t15 1.6385
R133 G2_1.n5 G2_1.n4 1.6385
R134 G2_1.n3 G2_1.t49 1.6385
R135 G2_1.n3 G2_1.n2 1.6385
R136 G2_1.n7 G2_1.t21 1.6385
R137 G2_1.n7 G2_1.n6 1.6385
R138 G2_1.n56 G2_1.t44 1.6385
R139 G2_1.n56 G2_1.n55 1.6385
R140 G2_1.n11 G2_1.t13 1.6385
R141 G2_1.n11 G2_1.n10 1.6385
R142 G2_1.n9 G2_1.t56 1.6385
R143 G2_1.n9 G2_1.n8 1.6385
R144 G2_1.n35 G2_1.t17 1.6385
R145 G2_1.n35 G2_1.n34 1.6385
R146 G2_1.n38 G2_1.t41 1.6385
R147 G2_1.n38 G2_1.n37 1.6385
R148 G2_1.n120 G2_1.t23 1.6385
R149 G2_1.n120 G2_1.n119 1.6385
R150 G2_1.n122 G2_1.t45 1.6385
R151 G2_1.n122 G2_1.n121 1.6385
R152 G2_1.n13 G2_1.t46 1.6385
R153 G2_1.n13 G2_1.n12 1.6385
R154 G2_1.n25 G2_1.t7 1.6385
R155 G2_1.n25 G2_1.n24 1.6385
R156 G2_1 G2_1.n134 0.362318
R157 G2_1.n117 G2_1.n115 0.2925
R158 G2_1.n83 G2_1.n80 0.253351
R159 G2_1.n118 G2_1.n114 0.197599
R160 G2_1.n33 G2_1.n30 0.197599
R161 G2_1.n53 G2_1.n50 0.197599
R162 G2_1.n71 G2_1.n68 0.197599
R163 G2_1.n93 G2_1.n90 0.197599
R164 G2_1.n45 G2_1.n42 0.172031
R165 G2_1.n63 G2_1.n60 0.172031
R166 G2_1.n105 G2_1.n102 0.172031
R167 G2_1.n39 G2_1.n36 0.100499
R168 G2_1.n47 G2_1.n46 0.093148
R169 G2_1.n65 G2_1.n64 0.0926899
R170 G2_1.n57 G2_1.n54 0.0817532
R171 G2_1.n87 G2_1.n86 0.0807174
R172 G2_1.n77 G2_1.n74 0.0742956
R173 G2_1.n99 G2_1.n96 0.0727632
R174 G2_1.n74 G2_1.n71 0.0708476
R175 G2_1.n96 G2_1.n93 0.0705535
R176 G2_1.n111 G2_1.n108 0.0688207
R177 G2_1.n114 G2_1.n111 0.0665096
R178 G2_1.n90 G2_1.n87 0.0655603
R179 G2_1.n68 G2_1.n65 0.0636092
R180 G2_1.n54 G2_1.n53 0.061636
R181 G2_1.n50 G2_1.n47 0.0606109
R182 G2_1.n36 G2_1.n33 0.0579026
R183 G2_1.n108 G2_1.n105 0.049875
R184 G2_1.n86 G2_1.n83 0.0488673
R185 G2_1.n102 G2_1.n99 0.0443624
R186 G2_1.n46 G2_1.n45 0.0432184
R187 G2_1.n80 G2_1.n77 0.0423084
R188 G2_1.n60 G2_1.n57 0.0409019
R189 G2_1.n64 G2_1.n63 0.0397098
R190 G2_1.n42 G2_1.n39 0.0396398
R191 G2_1.n30 G2_1.n27 0.0223182
R192 G2_1.n134 G2_1.n133 0.00742308
R193 G2_1 G2_1.n118 0.00504545
R194 G2_1.n27 G2_1.n26 0.00495545
R195 VSS.n105 VSS.t106 223.469
R196 VSS.n102 VSS.t93 208.894
R197 VSS.n100 VSS.t90 194.321
R198 VSS.n98 VSS.t88 179.746
R199 VSS.n96 VSS.t85 165.173
R200 VSS.n93 VSS.t109 150.599
R201 VSS.n116 VSS.t111 150.599
R202 VSS.n73 VSS.t97 138.453
R203 VSS.n91 VSS.t100 136.024
R204 VSS.n76 VSS.t99 123.879
R205 VSS.n167 VSS.t62 114.472
R206 VSS.n78 VSS.t112 109.305
R207 VSS.n164 VSS.t11 107.007
R208 VSS.n162 VSS.t21 99.5411
R209 VSS.n80 VSS.t103 94.7314
R210 VSS.n160 VSS.t4 92.0755
R211 VSS.n158 VSS.t31 84.61
R212 VSS.n82 VSS.t95 80.1575
R213 VSS.n155 VSS.t24 77.1445
R214 VSS.n177 VSS.t45 77.1445
R215 VSS.n153 VSS.t37 69.6789
R216 VSS.n85 VSS.t80 65.5835
R217 VSS.n151 VSS.t53 62.2134
R218 VSS.n69 VSS.t98 58.2965
R219 VSS.n149 VSS.t16 54.7478
R220 VSS.n87 VSS.t83 51.0095
R221 VSS.n146 VSS.t8 47.2823
R222 VSS.n144 VSS.t48 39.8167
R223 VSS.n142 VSS.t6 32.3512
R224 VSS.n140 VSS.t26 24.8856
R225 VSS.n137 VSS.t57 17.4201
R226 VSS.n30 VSS.t2 13.6873
R227 VSS.n128 VSS.t0 12.4431
R228 VSS.n135 VSS.t13 9.95456
R229 VSS.n17 VSS.n16 6.40927
R230 VSS.n283 VSS.t113 6.40764
R231 VSS.n270 VSS.t84 6.4068
R232 VSS.n272 VSS.n259 6.4068
R233 VSS.n255 VSS.n201 6.35296
R234 VSS.n57 VSS.n56 5.4245
R235 VSS.n35 VSS.n34 5.41019
R236 VSS.n253 VSS.t52 5.3939
R237 VSS.n200 VSS.t46 5.3802
R238 VSS.n173 VSS.n170 5.2005
R239 VSS.n180 VSS.n178 5.2005
R240 VSS.n31 VSS.n29 5.2005
R241 VSS.n31 VSS.n27 5.2005
R242 VSS.n129 VSS.n128 5.2005
R243 VSS.n132 VSS.n131 5.2005
R244 VSS.n134 VSS.n133 5.2005
R245 VSS.n136 VSS.n135 5.2005
R246 VSS.n138 VSS.n137 5.2005
R247 VSS.n141 VSS.n140 5.2005
R248 VSS.n143 VSS.n142 5.2005
R249 VSS.n145 VSS.n144 5.2005
R250 VSS.n147 VSS.n146 5.2005
R251 VSS.n150 VSS.n149 5.2005
R252 VSS.n152 VSS.n151 5.2005
R253 VSS.n154 VSS.n153 5.2005
R254 VSS.n156 VSS.n155 5.2005
R255 VSS.n159 VSS.n158 5.2005
R256 VSS.n161 VSS.n160 5.2005
R257 VSS.n163 VSS.n162 5.2005
R258 VSS.n165 VSS.n164 5.2005
R259 VSS.n168 VSS.n167 5.2005
R260 VSS.n180 VSS.n177 5.2005
R261 VSS.n111 VSS.n110 5.2005
R262 VSS.n12 VSS.n11 5.2005
R263 VSS.n117 VSS.n116 5.2005
R264 VSS.n117 VSS.n114 5.2005
R265 VSS.n71 VSS.n69 5.2005
R266 VSS.n71 VSS.n68 5.2005
R267 VSS.n74 VSS.n73 5.2005
R268 VSS.n77 VSS.n76 5.2005
R269 VSS.n79 VSS.n78 5.2005
R270 VSS.n81 VSS.n80 5.2005
R271 VSS.n83 VSS.n82 5.2005
R272 VSS.n86 VSS.n85 5.2005
R273 VSS.n88 VSS.n87 5.2005
R274 VSS.n90 VSS.n89 5.2005
R275 VSS.n92 VSS.n91 5.2005
R276 VSS.n94 VSS.n93 5.2005
R277 VSS.n97 VSS.n96 5.2005
R278 VSS.n99 VSS.n98 5.2005
R279 VSS.n101 VSS.n100 5.2005
R280 VSS.n103 VSS.n102 5.2005
R281 VSS.n106 VSS.n105 5.2005
R282 VSS.n131 VSS.t42 4.97753
R283 VSS.n31 VSS.n30 4.5005
R284 VSS.n180 VSS.n179 4.5005
R285 VSS.n117 VSS.n115 4.5005
R286 VSS.n71 VSS.n70 4.5005
R287 VSS.n64 VSS.n55 4.1554
R288 VSS.n66 VSS.n65 3.92314
R289 VSS.n286 VSS.n285 3.87094
R290 VSS.n67 VSS.n66 3.84637
R291 VSS.n166 VSS.n119 3.75507
R292 VSS.n157 VSS.n121 3.75507
R293 VSS.n148 VSS.n123 3.75507
R294 VSS.n139 VSS.n125 3.75507
R295 VSS.n130 VSS.n127 3.75507
R296 VSS.n224 VSS.n217 3.75507
R297 VSS.n230 VSS.n213 3.75507
R298 VSS.n236 VSS.n209 3.75507
R299 VSS.n242 VSS.n205 3.75507
R300 VSS.n245 VSS.n203 3.75507
R301 VSS.n239 VSS.n207 3.75507
R302 VSS.n233 VSS.n211 3.75507
R303 VSS.n227 VSS.n215 3.75507
R304 VSS.n221 VSS.n219 3.75507
R305 VSS.n50 VSS.n41 3.74137
R306 VSS.n45 VSS.n43 3.74137
R307 VSS.n189 VSS.n185 3.74137
R308 VSS.n194 VSS.n183 3.74137
R309 VSS.n265 VSS.n261 3.6768
R310 VSS.n277 VSS.n258 3.6768
R311 VSS.n104 VSS.n1 3.64159
R312 VSS.n95 VSS.n3 3.64159
R313 VSS.n84 VSS.n5 3.64159
R314 VSS.n75 VSS.n7 3.64159
R315 VSS.n285 VSS.n256 3.51026
R316 VSS.n261 VSS.t116 2.7305
R317 VSS.n261 VSS.n260 2.7305
R318 VSS.n258 VSS.t89 2.7305
R319 VSS.n258 VSS.n257 2.7305
R320 VSS.n1 VSS.t94 2.7305
R321 VSS.n1 VSS.n0 2.7305
R322 VSS.n3 VSS.t110 2.7305
R323 VSS.n3 VSS.n2 2.7305
R324 VSS.n5 VSS.t96 2.7305
R325 VSS.n5 VSS.n4 2.7305
R326 VSS.n7 VSS.t117 2.7305
R327 VSS.n7 VSS.n6 2.7305
R328 VSS.n37 VSS.n36 2.60175
R329 VSS.n174 VSS.n173 2.60175
R330 VSS.n59 VSS.n58 2.60175
R331 VSS.n249 VSS.n248 2.60175
R332 VSS.n25 VSS.n23 2.60175
R333 VSS.n112 VSS.n111 2.60175
R334 VSS.n15 VSS.n13 2.60175
R335 VSS.n13 VSS.n12 2.601
R336 VSS.n12 VSS.n10 2.601
R337 VSS.n111 VSS.n109 2.601
R338 VSS.n23 VSS.n22 2.601
R339 VSS.n173 VSS.n172 2.601
R340 VSS.n175 VSS.n174 2.601
R341 VSS.n287 VSS.n112 2.601
R342 VSS.n22 VSS.n21 2.48901
R343 VSS.n29 VSS.n28 2.48901
R344 VSS.n133 VSS.t29 2.48901
R345 VSS.n286 VSS.n117 2.41864
R346 VSS.n253 VSS.n252 2.41785
R347 VSS.n181 VSS.n180 2.41764
R348 VSS.n62 VSS.n61 2.40802
R349 VSS.n32 VSS.n31 2.40802
R350 VSS.n72 VSS.n71 2.40802
R351 VSS.n54 VSS.n39 2.40786
R352 VSS.n65 VSS.n33 2.25997
R353 VSS.n256 VSS.n181 2.25167
R354 VSS.n285 VSS.n284 2.2505
R355 VSS.n66 VSS.n20 2.2505
R356 VSS.n64 VSS.n63 2.2505
R357 VSS.n255 VSS.n254 2.2505
R358 VSS.n15 VSS.n14 2.17323
R359 VSS.n25 VSS.n24 2.16377
R360 VSS.n61 VSS.n60 2.13331
R361 VSS.n39 VSS.n38 2.13331
R362 VSS.n180 VSS.n176 2.02394
R363 VSS.n252 VSS.n250 2.02394
R364 VSS.n117 VSS.n113 2.02394
R365 VSS.n65 VSS.n64 1.87545
R366 VSS.n256 VSS.n255 1.87428
R367 VSS.n119 VSS.t12 1.6385
R368 VSS.n119 VSS.n118 1.6385
R369 VSS.n121 VSS.t70 1.6385
R370 VSS.n121 VSS.n120 1.6385
R371 VSS.n123 VSS.t9 1.6385
R372 VSS.n123 VSS.n122 1.6385
R373 VSS.n125 VSS.t64 1.6385
R374 VSS.n125 VSS.n124 1.6385
R375 VSS.n127 VSS.t1 1.6385
R376 VSS.n127 VSS.n126 1.6385
R377 VSS.n217 VSS.t47 1.6385
R378 VSS.n217 VSS.n216 1.6385