* NGSPICE file created from Folded_Diff_Op_Amp_Layout.ext - technology: gf180mcuC

.subckt pmos_3p3_ME7U2H a_28_n313# a_n28_n357# a_n116_n313# w_n202_n443#
X0 a_28_n313# a_n28_n357# a_n116_n313# w_n202_n443# pfet_03v3 ad=1.38p pd=7.14u as=1.38p ps=7.14u w=3.13u l=0.28u
.ends

.subckt pmos_3p3_MA2VAR w_n202_n430# a_28_n300# a_n28_n344# a_n116_n300#
X0 a_28_n300# a_n28_n344# a_n116_n300# w_n202_n430# pfet_03v3 ad=1.32p pd=6.88u as=1.32p ps=6.88u w=3u l=0.28u
.ends

.subckt nmos_3p3_876RT2 a_n196_n100# a_n52_n100# a_108_n100# a_52_n144# a_n108_n144#
+ VSUBS
X0 a_n52_n100# a_n108_n144# a_n196_n100# VSUBS nfet_03v3 ad=0.26p pd=1.52u as=0.44p ps=2.88u w=1u l=0.28u
X1 a_108_n100# a_52_n144# a_n52_n100# VSUBS nfet_03v3 ad=0.44p pd=2.88u as=0.26p ps=1.52u w=1u l=0.28u
.ends

.subckt nmos_3p3_3A6RT2 a_28_n100# a_n28_n144# a_n116_n100# VSUBS
X0 a_28_n100# a_n28_n144# a_n116_n100# VSUBS nfet_03v3 ad=0.44p pd=2.88u as=0.44p ps=2.88u w=1u l=0.28u
.ends

.subckt nmos_3p3_7WQWW2 a_108_n288# a_n196_n288# a_52_n332# a_n52_n288# a_n108_n332#
+ VSUBS
X0 a_108_n288# a_52_n332# a_n52_n288# VSUBS nfet_03v3 ad=1.27p pd=6.64u as=0.749p ps=3.4u w=2.88u l=0.28u
X1 a_n52_n288# a_n108_n332# a_n196_n288# VSUBS nfet_03v3 ad=0.749p pd=3.4u as=1.27p ps=6.64u w=2.88u l=0.28u
.ends

.subckt pmos_3p3_M22VAR a_52_n344# a_108_n300# a_n108_n344# a_n196_n300# a_n52_n300#
+ w_n282_n430#
X0 a_108_n300# a_52_n344# a_n52_n300# w_n282_n430# pfet_03v3 ad=1.32p pd=6.88u as=0.78p ps=3.52u w=3u l=0.28u
X1 a_n52_n300# a_n108_n344# a_n196_n300# w_n282_n430# pfet_03v3 ad=0.78p pd=3.52u as=1.32p ps=6.88u w=3u l=0.28u
.ends

.subckt pmos_3p3_MNS6FR w_n282_n505# a_108_n375# a_n196_n375# a_52_n419# a_n108_n419#
+ a_n52_n375#
X0 a_108_n375# a_52_n419# a_n52_n375# w_n282_n505# pfet_03v3 ad=1.65p pd=8.38u as=0.975p ps=4.27u w=3.75u l=0.28u
X1 a_n52_n375# a_n108_n419# a_n196_n375# w_n282_n505# pfet_03v3 ad=0.975p pd=4.27u as=1.65p ps=8.38u w=3.75u l=0.28u
.ends

.subckt nmos_3p3_M86RTJ a_28_n300# a_n28_n344# a_n116_n300# VSUBS
X0 a_28_n300# a_n28_n344# a_n116_n300# VSUBS nfet_03v3 ad=1.32p pd=6.88u as=1.32p ps=6.88u w=3u l=0.28u
.ends

.subckt nmos_3p3_276RTJ a_52_n344# a_108_n300# a_n108_n344# a_n196_n300# a_n52_n300#
+ VSUBS
X0 a_108_n300# a_52_n344# a_n52_n300# VSUBS nfet_03v3 ad=1.32p pd=6.88u as=0.78p ps=3.52u w=3u l=0.28u
X1 a_n52_n300# a_n108_n344# a_n196_n300# VSUBS nfet_03v3 ad=0.78p pd=3.52u as=1.32p ps=6.88u w=3u l=0.28u
.ends

.subckt nmos_3p3_2F3WC4 a_n796_n468# a_100_n468# a_n708_24# a_508_n512# a_n508_n468#
+ a_508_24# a_404_68# a_204_n512# a_n204_n468# a_n508_68# a_n100_24# a_n708_n512#
+ a_708_68# a_n796_68# a_n404_n512# a_n100_n512# a_n404_24# a_204_24# a_708_n468#
+ a_100_68# a_404_n468# a_n204_68# VSUBS
X0 a_n204_n468# a_n404_n512# a_n508_n468# VSUBS nfet_03v3 ad=0.52p pd=2.52u as=0.52p ps=2.52u w=2u l=1u
X1 a_n508_n468# a_n708_n512# a_n796_n468# VSUBS nfet_03v3 ad=0.52p pd=2.52u as=0.88p ps=4.88u w=2u l=1u
X2 a_100_68# a_n100_24# a_n204_68# VSUBS nfet_03v3 ad=0.52p pd=2.52u as=0.52p ps=2.52u w=2u l=1u
X3 a_404_n468# a_204_n512# a_100_n468# VSUBS nfet_03v3 ad=0.52p pd=2.52u as=0.52p ps=2.52u w=2u l=1u
X4 a_100_n468# a_n100_n512# a_n204_n468# VSUBS nfet_03v3 ad=0.52p pd=2.52u as=0.52p ps=2.52u w=2u l=1u
X5 a_708_n468# a_508_n512# a_404_n468# VSUBS nfet_03v3 ad=0.88p pd=4.88u as=0.52p ps=2.52u w=2u l=1u
X6 a_404_68# a_204_24# a_100_68# VSUBS nfet_03v3 ad=0.52p pd=2.52u as=0.52p ps=2.52u w=2u l=1u
X7 a_n204_68# a_n404_24# a_n508_68# VSUBS nfet_03v3 ad=0.52p pd=2.52u as=0.52p ps=2.52u w=2u l=1u
X8 a_708_68# a_508_24# a_404_68# VSUBS nfet_03v3 ad=0.88p pd=4.88u as=0.52p ps=2.52u w=2u l=1u
X9 a_n508_68# a_n708_24# a_n796_68# VSUBS nfet_03v3 ad=0.52p pd=2.52u as=0.88p ps=4.88u w=2u l=1u
.ends

.subckt ppolyf_u_2VJWHK a_n100_500# a_n100_n602# w_n284_n786#
X0 a_n100_500# a_n100_n602# w_n284_n786# ppolyf_u r_width=1u r_length=5u
.ends

.subckt nmos_3p3_NE3WC4 a_100_n200# a_n100_n244# a_n188_n200# VSUBS
X0 a_100_n200# a_n100_n244# a_n188_n200# VSUBS nfet_03v3 ad=0.88p pd=4.88u as=0.88p ps=4.88u w=2u l=1u
.ends

.subckt nmos_3p3_EA6RT2 a_212_n144# a_268_n100# a_n268_n144# a_n356_n100# a_n52_n100#
+ a_n212_n100# a_108_n100# a_52_n144# a_n108_n144# VSUBS
X0 a_n52_n100# a_n108_n144# a_n212_n100# VSUBS nfet_03v3 ad=0.26p pd=1.52u as=0.26p ps=1.52u w=1u l=0.28u
X1 a_n212_n100# a_n268_n144# a_n356_n100# VSUBS nfet_03v3 ad=0.26p pd=1.52u as=0.44p ps=2.88u w=1u l=0.28u
X2 a_108_n100# a_52_n144# a_n52_n100# VSUBS nfet_03v3 ad=0.26p pd=1.52u as=0.26p ps=1.52u w=1u l=0.28u
X3 a_268_n100# a_212_n144# a_108_n100# VSUBS nfet_03v3 ad=0.44p pd=2.88u as=0.26p ps=1.52u w=1u l=0.28u
.ends

.subckt pmos_3p3_5L6RD7 w_n230_n530# a_56_n400# a_n56_n444# a_n144_n400#
X0 a_56_n400# a_n56_n444# a_n144_n400# w_n230_n530# pfet_03v3 ad=1.76p pd=8.88u as=1.76p ps=8.88u w=4u l=0.56u
.ends

.subckt nmos_3p3_S75EG7 a_212_n144# a_n908_n144# a_268_n100# a_n1068_n144# a_1012_n144#
+ a_1068_n100# a_n1156_n100# a_n692_n100# a_n268_n144# a_372_n144# a_428_n100# a_n52_n100#
+ a_n852_n100# a_n428_n144# a_n1012_n100# a_532_n144# a_588_n100# a_n212_n100# a_n588_n144#
+ a_692_n144# a_748_n100# a_n372_n100# a_n748_n144# a_852_n144# a_108_n100# a_52_n144#
+ a_908_n100# a_n532_n100# a_n108_n144# VSUBS
X0 a_n52_n100# a_n108_n144# a_n212_n100# VSUBS nfet_03v3 ad=0.26p pd=1.52u as=0.26p ps=1.52u w=1u l=0.28u
X1 a_588_n100# a_532_n144# a_428_n100# VSUBS nfet_03v3 ad=0.26p pd=1.52u as=0.26p ps=1.52u w=1u l=0.28u
X2 a_n212_n100# a_n268_n144# a_n372_n100# VSUBS nfet_03v3 ad=0.26p pd=1.52u as=0.26p ps=1.52u w=1u l=0.28u
X3 a_n692_n100# a_n748_n144# a_n852_n100# VSUBS nfet_03v3 ad=0.26p pd=1.52u as=0.26p ps=1.52u w=1u l=0.28u
X4 a_1068_n100# a_1012_n144# a_908_n100# VSUBS nfet_03v3 ad=0.44p pd=2.88u as=0.26p ps=1.52u w=1u l=0.28u
X5 a_748_n100# a_692_n144# a_588_n100# VSUBS nfet_03v3 ad=0.26p pd=1.52u as=0.26p ps=1.52u w=1u l=0.28u
X6 a_108_n100# a_52_n144# a_n52_n100# VSUBS nfet_03v3 ad=0.26p pd=1.52u as=0.26p ps=1.52u w=1u l=0.28u
X7 a_268_n100# a_212_n144# a_108_n100# VSUBS nfet_03v3 ad=0.26p pd=1.52u as=0.26p ps=1.52u w=1u l=0.28u
X8 a_n372_n100# a_n428_n144# a_n532_n100# VSUBS nfet_03v3 ad=0.26p pd=1.52u as=0.26p ps=1.52u w=1u l=0.28u
X9 a_n852_n100# a_n908_n144# a_n1012_n100# VSUBS nfet_03v3 ad=0.26p pd=1.52u as=0.26p ps=1.52u w=1u l=0.28u
X10 a_428_n100# a_372_n144# a_268_n100# VSUBS nfet_03v3 ad=0.26p pd=1.52u as=0.26p ps=1.52u w=1u l=0.28u
X11 a_n1012_n100# a_n1068_n144# a_n1156_n100# VSUBS nfet_03v3 ad=0.26p pd=1.52u as=0.44p ps=2.88u w=1u l=0.28u
X12 a_908_n100# a_852_n144# a_748_n100# VSUBS nfet_03v3 ad=0.26p pd=1.52u as=0.26p ps=1.52u w=1u l=0.28u
X13 a_n532_n100# a_n588_n144# a_n692_n100# VSUBS nfet_03v3 ad=0.26p pd=1.52u as=0.26p ps=1.52u w=1u l=0.28u
.ends

.subckt nmos_3p3_5J7TC4 a_252_n100# a_n252_n144# a_n340_n100# a_n52_n100# a_52_n144#
+ VSUBS
X0 a_n52_n100# a_n252_n144# a_n340_n100# VSUBS nfet_03v3 ad=0.26p pd=1.52u as=0.44p ps=2.88u w=1u l=1u
X1 a_252_n100# a_52_n144# a_n52_n100# VSUBS nfet_03v3 ad=0.44p pd=2.88u as=0.26p ps=1.52u w=1u l=1u
.ends

.subckt pmos_3p3_MYZUAR w_n202_n530# a_28_n400# a_n28_n444# a_n116_n400#
X0 a_28_n400# a_n28_n444# a_n116_n400# w_n202_n530# pfet_03v3 ad=1.76p pd=8.88u as=1.76p ps=8.88u w=4u l=0.28u
.ends

.subckt pmos_3p3_MAEVAR a_28_n668# a_n116_n668# a_28_68# a_n28_n712# a_n28_24# w_n202_n798#
+ a_n116_68#
X0 a_28_68# a_n28_24# a_n116_68# w_n202_n798# pfet_03v3 ad=1.32p pd=6.88u as=1.32p ps=6.88u w=3u l=0.28u
X1 a_28_n668# a_n28_n712# a_n116_n668# w_n202_n798# pfet_03v3 ad=1.32p pd=6.88u as=1.32p ps=6.88u w=3u l=0.28u
.ends

.subckt pmos_3p3_MES6FR w_n202_n505# a_28_n375# a_n116_n375# a_n28_n419#
X0 a_28_n375# a_n28_n419# a_n116_n375# w_n202_n505# pfet_03v3 ad=1.65p pd=8.38u as=1.65p ps=8.38u w=3.75u l=0.28u
.ends

.subckt pmos_3p3_RKK9DS a_n52_n50# a_n1172_n50# a_428_n50# a_908_n50# a_588_n50# a_1068_n50#
+ a_n428_n94# a_n588_n94# a_n908_n94# a_n1068_n94# a_n212_n50# a_532_n94# a_n372_n50#
+ a_1012_n94# a_n852_n50# a_1172_n94# a_692_n94# a_52_n94# w_n1402_n180# a_108_n50#
+ a_268_n50# a_748_n50# a_1228_n50# a_n1316_n50# a_n108_n94# a_n268_n94# a_n748_n94#
+ a_n1228_n94# a_212_n94# a_372_n94# a_n532_n50# a_n692_n50# a_n1012_n50# a_852_n94#
X0 a_1228_n50# a_1172_n94# a_1068_n50# w_n1402_n180# pfet_03v3 ad=0.22p pd=1.88u as=0.13p ps=1.02u w=0.5u l=0.28u
X1 a_108_n50# a_52_n94# a_n52_n50# w_n1402_n180# pfet_03v3 ad=0.13p pd=1.02u as=0.13p ps=1.02u w=0.5u l=0.28u
X2 a_268_n50# a_212_n94# a_108_n50# w_n1402_n180# pfet_03v3 ad=0.13p pd=1.02u as=0.13p ps=1.02u w=0.5u l=0.28u
X3 a_n372_n50# a_n428_n94# a_n532_n50# w_n1402_n180# pfet_03v3 ad=0.13p pd=1.02u as=0.13p ps=1.02u w=0.5u l=0.28u
X4 a_n852_n50# a_n908_n94# a_n1012_n50# w_n1402_n180# pfet_03v3 ad=0.13p pd=1.02u as=0.13p ps=1.02u w=0.5u l=0.28u
X5 a_428_n50# a_372_n94# a_268_n50# w_n1402_n180# pfet_03v3 ad=0.13p pd=1.02u as=0.13p ps=1.02u w=0.5u l=0.28u
X6 a_n1012_n50# a_n1068_n94# a_n1172_n50# w_n1402_n180# pfet_03v3 ad=0.13p pd=1.02u as=0.13p ps=1.02u w=0.5u l=0.28u
X7 a_908_n50# a_852_n94# a_748_n50# w_n1402_n180# pfet_03v3 ad=0.13p pd=1.02u as=0.13p ps=1.02u w=0.5u l=0.28u
X8 a_n532_n50# a_n588_n94# a_n692_n50# w_n1402_n180# pfet_03v3 ad=0.13p pd=1.02u as=0.13p ps=1.02u w=0.5u l=0.28u
X9 a_n52_n50# a_n108_n94# a_n212_n50# w_n1402_n180# pfet_03v3 ad=0.13p pd=1.02u as=0.13p ps=1.02u w=0.5u l=0.28u
X10 a_588_n50# a_532_n94# a_428_n50# w_n1402_n180# pfet_03v3 ad=0.13p pd=1.02u as=0.13p ps=1.02u w=0.5u l=0.28u
X11 a_n1172_n50# a_n1228_n94# a_n1316_n50# w_n1402_n180# pfet_03v3 ad=0.13p pd=1.02u as=0.22p ps=1.88u w=0.5u l=0.28u
X12 a_n212_n50# a_n268_n94# a_n372_n50# w_n1402_n180# pfet_03v3 ad=0.13p pd=1.02u as=0.13p ps=1.02u w=0.5u l=0.28u
X13 a_n692_n50# a_n748_n94# a_n852_n50# w_n1402_n180# pfet_03v3 ad=0.13p pd=1.02u as=0.13p ps=1.02u w=0.5u l=0.28u
X14 a_1068_n50# a_1012_n94# a_908_n50# w_n1402_n180# pfet_03v3 ad=0.13p pd=1.02u as=0.13p ps=1.02u w=0.5u l=0.28u
X15 a_748_n50# a_692_n94# a_588_n50# w_n1402_n180# pfet_03v3 ad=0.13p pd=1.02u as=0.13p ps=1.02u w=0.5u l=0.28u
.ends

.subckt cap_mim_2p0fF_3FUNHB m4_n2340_n4500# m4_n2220_n4380#
X0 m4_n2220_n4380# m4_n2340_n4500# cap_mim_2f0_m4m5_noshield c_width=21u c_length=21u
X1 m4_n2220_n4380# m4_n2340_n4500# cap_mim_2f0_m4m5_noshield c_width=21u c_length=21u
.ends

.subckt pmos_3p3_5UYQD7 a_n52_n400# a_164_n400# a_n164_n444# a_n252_n400# a_52_n444#
+ w_n338_n530#
X0 a_n52_n400# a_n164_n444# a_n252_n400# w_n338_n530# pfet_03v3 ad=1.04p pd=4.52u as=1.76p ps=8.88u w=4u l=0.56u
X1 a_164_n400# a_52_n444# a_n52_n400# w_n338_n530# pfet_03v3 ad=1.76p pd=8.88u as=1.04p ps=4.52u w=4u l=0.56u
.ends

.subckt pmos_3p3_5LZQD7 a_488_n400# a_n488_n444# a_n160_n400# a_376_n444# a_n576_n400#
+ a_272_n400# a_56_n400# a_n56_n444# a_n272_n444# a_160_n444# a_n376_n400# w_n662_n530#
X0 a_56_n400# a_n56_n444# a_n160_n400# w_n662_n530# pfet_03v3 ad=1.04p pd=4.52u as=1.04p ps=4.52u w=4u l=0.56u
X1 a_272_n400# a_160_n444# a_56_n400# w_n662_n530# pfet_03v3 ad=1.04p pd=4.52u as=1.04p ps=4.52u w=4u l=0.56u
X2 a_n160_n400# a_n272_n444# a_n376_n400# w_n662_n530# pfet_03v3 ad=1.04p pd=4.52u as=1.04p ps=4.52u w=4u l=0.56u
X3 a_488_n400# a_376_n444# a_272_n400# w_n662_n530# pfet_03v3 ad=1.76p pd=8.88u as=1.04p ps=4.52u w=4u l=0.56u
X4 a_n376_n400# a_n488_n444# a_n576_n400# w_n662_n530# pfet_03v3 ad=1.04p pd=4.52u as=1.76p ps=8.88u w=4u l=0.56u
.ends

.subckt pmos_3p3_5C3RD7 a_268_n444# a_n52_n400# a_n468_n400# a_380_n400# a_164_n400#
+ a_n164_n444# a_n380_n444# a_52_n444# a_n268_n400# w_n554_n530#
X0 a_n52_n400# a_n164_n444# a_n268_n400# w_n554_n530# pfet_03v3 ad=1.04p pd=4.52u as=1.04p ps=4.52u w=4u l=0.56u
X1 a_164_n400# a_52_n444# a_n52_n400# w_n554_n530# pfet_03v3 ad=1.04p pd=4.52u as=1.04p ps=4.52u w=4u l=0.56u
X2 a_380_n400# a_268_n444# a_164_n400# w_n554_n530# pfet_03v3 ad=1.76p pd=8.88u as=1.04p ps=4.52u w=4u l=0.56u
X3 a_n268_n400# a_n380_n444# a_n468_n400# w_n554_n530# pfet_03v3 ad=1.04p pd=4.52u as=1.76p ps=8.88u w=4u l=0.56u
.ends

.subckt pmos_3p3_HMY8L7 a_812_68# a_n268_68# a_n700_830# a_268_786# a_n484_830# w_n986_n1586#
+ a_164_n1456# a_n596_24# a_n596_n1500# a_n268_n694# a_n484_n694# a_n52_68# a_52_24#
+ a_n484_n1456# a_n700_n694# a_n52_830# a_n164_n738# a_n380_n738# a_380_830# a_n380_786#
+ a_812_n1456# a_484_n1500# a_n268_n1456# a_n900_n1456# a_52_n738# a_380_68# a_484_24#
+ a_n380_n1500# a_52_n1500# a_n484_68# a_n164_24# a_n52_n1456# a_596_n694# a_700_786#
+ a_268_n1500# a_n164_n1500# a_812_n694# a_n812_24# a_484_786# a_596_68# a_n52_n694#
+ a_n268_830# a_52_786# a_n900_830# a_n812_n1500# a_n900_n694# a_812_830# a_596_n1456#
+ a_n700_n1456# a_700_24# a_596_830# a_164_830# a_n812_786# a_n164_786# a_268_n738#
+ a_n596_n738# a_n596_786# a_484_n738# a_700_n1500# a_700_n738# a_n812_n738# a_n700_68#
+ a_268_24# a_164_n694# a_164_68# a_n380_24# a_380_n1456# a_380_n694# a_n900_68#
X0 a_n700_830# a_n812_786# a_n900_830# w_n986_n1586# pfet_03v3 ad=0.814p pd=3.65u as=1.38p ps=7.14u w=3.13u l=0.56u
X1 a_n700_68# a_n812_24# a_n900_68# w_n986_n1586# pfet_03v3 ad=0.814p pd=3.65u as=1.38p ps=7.14u w=3.13u l=0.56u
X2 a_n700_n1456# a_n812_n1500# a_n900_n1456# w_n986_n1586# pfet_03v3 ad=0.814p pd=3.65u as=1.38p ps=7.14u w=3.13u l=0.56u
X3 a_n484_68# a_n596_24# a_n700_68# w_n986_n1586# pfet_03v3 ad=0.814p pd=3.65u as=0.814p ps=3.65u w=3.13u l=0.56u
X4 a_n268_68# a_n380_24# a_n484_68# w_n986_n1586# pfet_03v3 ad=0.814p pd=3.65u as=0.814p ps=3.65u w=3.13u l=0.56u
X5 a_n484_n1456# a_n596_n1500# a_n700_n1456# w_n986_n1586# pfet_03v3 ad=0.814p pd=3.65u as=0.814p ps=3.65u w=3.13u l=0.56u
X6 a_n52_n694# a_n164_n738# a_n268_n694# w_n986_n1586# pfet_03v3 ad=0.814p pd=3.65u as=0.814p ps=3.65u w=3.13u l=0.56u
X7 a_n52_830# a_n164_786# a_n268_830# w_n986_n1586# pfet_03v3 ad=0.814p pd=3.65u as=0.814p ps=3.65u w=3.13u l=0.56u
X8 a_380_n1456# a_268_n1500# a_164_n1456# w_n986_n1586# pfet_03v3 ad=0.814p pd=3.65u as=0.814p ps=3.65u w=3.13u l=0.56u
X9 a_812_830# a_700_786# a_596_830# w_n986_n1586# pfet_03v3 ad=1.38p pd=7.14u as=0.814p ps=3.65u w=3.13u l=0.56u
X10 a_812_n694# a_700_n738# a_596_n694# w_n986_n1586# pfet_03v3 ad=1.38p pd=7.14u as=0.814p ps=3.65u w=3.13u l=0.56u
X11 a_n268_830# a_n380_786# a_n484_830# w_n986_n1586# pfet_03v3 ad=0.814p pd=3.65u as=0.814p ps=3.65u w=3.13u l=0.56u
X12 a_164_68# a_52_24# a_n52_68# w_n986_n1586# pfet_03v3 ad=0.814p pd=3.65u as=0.814p ps=3.65u w=3.13u l=0.56u
X13 a_n700_n694# a_n812_n738# a_n900_n694# w_n986_n1586# pfet_03v3 ad=0.814p pd=3.65u as=1.38p ps=7.14u w=3.13u l=0.56u
X14 a_n484_830# a_n596_786# a_n700_830# w_n986_n1586# pfet_03v3 ad=0.814p pd=3.65u as=0.814p ps=3.65u w=3.13u l=0.56u
X15 a_812_68# a_700_24# a_596_68# w_n986_n1586# pfet_03v3 ad=1.38p pd=7.14u as=0.814p ps=3.65u w=3.13u l=0.56u
X16 a_n268_n1456# a_n380_n1500# a_n484_n1456# w_n986_n1586# pfet_03v3 ad=0.814p pd=3.65u as=0.814p ps=3.65u w=3.13u l=0.56u
X17 a_n52_68# a_n164_24# a_n268_68# w_n986_n1586# pfet_03v3 ad=0.814p pd=3.65u as=0.814p ps=3.65u w=3.13u l=0.56u
X18 a_812_n1456# a_700_n1500# a_596_n1456# w_n986_n1586# pfet_03v3 ad=1.38p pd=7.14u as=0.814p ps=3.65u w=3.13u l=0.56u
X19 a_380_68# a_268_24# a_164_68# w_n986_n1586# pfet_03v3 ad=0.814p pd=3.65u as=0.814p ps=3.65u w=3.13u l=0.56u
X20 a_596_68# a_484_24# a_380_68# w_n986_n1586# pfet_03v3 ad=0.814p pd=3.65u as=0.814p ps=3.65u w=3.13u l=0.56u
X21 a_596_n694# a_484_n738# a_380_n694# w_n986_n1586# pfet_03v3 ad=0.814p pd=3.65u as=0.814p ps=3.65u w=3.13u l=0.56u
X22 a_380_830# a_268_786# a_164_830# w_n986_n1586# pfet_03v3 ad=0.814p pd=3.65u as=0.814p ps=3.65u w=3.13u l=0.56u
X23 a_164_n694# a_52_n738# a_n52_n694# w_n986_n1586# pfet_03v3 ad=0.814p pd=3.65u as=0.814p ps=3.65u w=3.13u l=0.56u
X24 a_380_n694# a_268_n738# a_164_n694# w_n986_n1586# pfet_03v3 ad=0.814p pd=3.65u as=0.814p ps=3.65u w=3.13u l=0.56u
X25 a_596_n1456# a_484_n1500# a_380_n1456# w_n986_n1586# pfet_03v3 ad=0.814p pd=3.65u as=0.814p ps=3.65u w=3.13u l=0.56u
X26 a_n484_n694# a_n596_n738# a_n700_n694# w_n986_n1586# pfet_03v3 ad=0.814p pd=3.65u as=0.814p ps=3.65u w=3.13u l=0.56u
X27 a_n52_n1456# a_n164_n1500# a_n268_n1456# w_n986_n1586# pfet_03v3 ad=0.814p pd=3.65u as=0.814p ps=3.65u w=3.13u l=0.56u
X28 a_164_n1456# a_52_n1500# a_n52_n1456# w_n986_n1586# pfet_03v3 ad=0.814p pd=3.65u as=0.814p ps=3.65u w=3.13u l=0.56u
X29 a_164_830# a_52_786# a_n52_830# w_n986_n1586# pfet_03v3 ad=0.814p pd=3.65u as=0.814p ps=3.65u w=3.13u l=0.56u
X30 a_n268_n694# a_n380_n738# a_n484_n694# w_n986_n1586# pfet_03v3 ad=0.814p pd=3.65u as=0.814p ps=3.65u w=3.13u l=0.56u
X31 a_596_830# a_484_786# a_380_830# w_n986_n1586# pfet_03v3 ad=0.814p pd=3.65u as=0.814p ps=3.65u w=3.13u l=0.56u
.ends

.subckt pmos_3p3_K823KY a_100_n50# a_n100_n94# a_n188_n50# w_n274_n180#
X0 a_100_n50# a_n100_n94# a_n188_n50# w_n274_n180# pfet_03v3 ad=0.22p pd=1.88u as=0.22p ps=1.88u w=0.5u l=1u
.ends

.subckt nmos_3p3_JE3WC4 a_708_n200# a_404_n200# a_n708_n244# a_n796_n200# a_100_n200#
+ a_n404_n244# a_n100_n244# a_n508_n200# a_n204_n200# a_508_n244# a_204_n244# VSUBS
X0 a_n508_n200# a_n708_n244# a_n796_n200# VSUBS nfet_03v3 ad=0.52p pd=2.52u as=0.88p ps=4.88u w=2u l=1u
X1 a_404_n200# a_204_n244# a_100_n200# VSUBS nfet_03v3 ad=0.52p pd=2.52u as=0.52p ps=2.52u w=2u l=1u
X2 a_100_n200# a_n100_n244# a_n204_n200# VSUBS nfet_03v3 ad=0.52p pd=2.52u as=0.52p ps=2.52u w=2u l=1u
X3 a_708_n200# a_508_n244# a_404_n200# VSUBS nfet_03v3 ad=0.88p pd=4.88u as=0.52p ps=2.52u w=2u l=1u
X4 a_n204_n200# a_n404_n244# a_n508_n200# VSUBS nfet_03v3 ad=0.52p pd=2.52u as=0.52p ps=2.52u w=2u l=1u
.ends

.subckt nmos_3p3_U56RT2 a_212_n144# a_268_n100# a_n268_n144# a_372_n144# a_428_n100#
+ a_n52_n100# a_n428_n144# a_n516_n100# a_n212_n100# a_n372_n100# a_108_n100# a_52_n144#
+ a_n108_n144# VSUBS
X0 a_n52_n100# a_n108_n144# a_n212_n100# VSUBS nfet_03v3 ad=0.26p pd=1.52u as=0.26p ps=1.52u w=1u l=0.28u
X1 a_n212_n100# a_n268_n144# a_n372_n100# VSUBS nfet_03v3 ad=0.26p pd=1.52u as=0.26p ps=1.52u w=1u l=0.28u
X2 a_108_n100# a_52_n144# a_n52_n100# VSUBS nfet_03v3 ad=0.26p pd=1.52u as=0.26p ps=1.52u w=1u l=0.28u
X3 a_268_n100# a_212_n144# a_108_n100# VSUBS nfet_03v3 ad=0.26p pd=1.52u as=0.26p ps=1.52u w=1u l=0.28u
X4 a_n372_n100# a_n428_n144# a_n516_n100# VSUBS nfet_03v3 ad=0.26p pd=1.52u as=0.44p ps=2.88u w=1u l=0.28u
X5 a_428_n100# a_372_n144# a_268_n100# VSUBS nfet_03v3 ad=0.44p pd=2.88u as=0.26p ps=1.52u w=1u l=0.28u
.ends

.subckt ppolyf_u_2V2ZHK a_40_n602# a_40_500# a_n240_n602# w_n424_n786# a_n240_500#
X0 a_40_500# a_40_n602# w_n424_n786# ppolyf_u r_width=1u r_length=5u
X1 a_n240_500# a_n240_n602# w_n424_n786# ppolyf_u r_width=1u r_length=5u
.ends

.subckt nmos_3p3_UUQWW2 a_n28_n332# a_28_n288# a_n116_n288# VSUBS
X0 a_28_n288# a_n28_n332# a_n116_n288# VSUBS nfet_03v3 ad=1.27p pd=6.64u as=1.27p ps=6.64u w=2.88u l=0.28u
.ends

.subckt pmos_3p3_M2NNAR a_n108_n1448# a_52_n712# a_108_n1404# a_n52_n668# a_52_n1448#
+ a_n52_68# a_52_24# a_n108_n712# a_108_804# a_108_68# a_n196_68# a_52_760# a_n196_n1404#
+ a_n108_760# a_108_n668# a_n52_804# a_n52_n1404# a_n196_n668# a_n196_804# a_n108_24#
+ w_n282_n1534#
X0 a_n52_n1404# a_n108_n1448# a_n196_n1404# w_n282_n1534# pfet_03v3 ad=0.78p pd=3.52u as=1.32p ps=6.88u w=3u l=0.28u
X1 a_108_n668# a_52_n712# a_n52_n668# w_n282_n1534# pfet_03v3 ad=1.32p pd=6.88u as=0.78p ps=3.52u w=3u l=0.28u
X2 a_108_804# a_52_760# a_n52_804# w_n282_n1534# pfet_03v3 ad=1.32p pd=6.88u as=0.78p ps=3.52u w=3u l=0.28u
X3 a_n52_n668# a_n108_n712# a_n196_n668# w_n282_n1534# pfet_03v3 ad=0.78p pd=3.52u as=1.32p ps=6.88u w=3u l=0.28u
X4 a_n52_68# a_n108_24# a_n196_68# w_n282_n1534# pfet_03v3 ad=0.78p pd=3.52u as=1.32p ps=6.88u w=3u l=0.28u
X5 a_108_68# a_52_24# a_n52_68# w_n282_n1534# pfet_03v3 ad=1.32p pd=6.88u as=0.78p ps=3.52u w=3u l=0.28u
X6 a_n52_804# a_n108_760# a_n196_804# w_n282_n1534# pfet_03v3 ad=0.78p pd=3.52u as=1.32p ps=6.88u w=3u l=0.28u
X7 a_108_n1404# a_52_n1448# a_n52_n1404# w_n282_n1534# pfet_03v3 ad=1.32p pd=6.88u as=0.78p ps=3.52u w=3u l=0.28u
.ends

.subckt pmos_3p3_MQ2VAR a_n52_n400# w_n282_n530# a_52_n444# a_108_n400# a_n108_n444#
+ a_n196_n400#
X0 a_108_n400# a_52_n444# a_n52_n400# w_n282_n530# pfet_03v3 ad=1.76p pd=8.88u as=1.04p ps=4.52u w=4u l=0.28u
X1 a_n52_n400# a_n108_n444# a_n196_n400# w_n282_n530# pfet_03v3 ad=1.04p pd=4.52u as=1.76p ps=8.88u w=4u l=0.28u
.ends

.subckt pmos_3p3_MN7U2H a_n52_n313# w_n282_n443# a_52_n357# a_108_n313# a_n108_n357#
+ a_n196_n313#
X0 a_n52_n313# a_n108_n357# a_n196_n313# w_n282_n443# pfet_03v3 ad=0.814p pd=3.65u as=1.38p ps=7.14u w=3.13u l=0.28u
X1 a_108_n313# a_52_n357# a_n52_n313# w_n282_n443# pfet_03v3 ad=1.38p pd=7.14u as=0.814p ps=3.65u w=3.13u l=0.28u
.ends

.subckt ppolyf_u_RRG95T a_n240_n722# a_n520_n722# a_320_620# a_n240_620# w_n704_n906#
+ a_n520_620# a_40_n722# a_320_n722# a_40_620#
X0 a_320_620# a_320_n722# w_n704_n906# ppolyf_u r_width=1u r_length=6.2u
X1 a_n520_620# a_n520_n722# w_n704_n906# ppolyf_u r_width=1u r_length=6.2u
X2 a_n240_620# a_n240_n722# w_n704_n906# ppolyf_u r_width=1u r_length=6.2u
X3 a_40_620# a_40_n722# w_n704_n906# ppolyf_u r_width=1u r_length=6.2u
.ends

.subckt nmos_3p3_FSHHD6 a_n52_n100# a_164_n100# a_n164_n144# a_n252_n100# a_52_n144#
+ VSUBS
X0 a_164_n100# a_52_n144# a_n52_n100# VSUBS nfet_03v3 ad=0.44p pd=2.88u as=0.26p ps=1.52u w=1u l=0.56u
X1 a_n52_n100# a_n164_n144# a_n252_n100# VSUBS nfet_03v3 ad=0.26p pd=1.52u as=0.44p ps=2.88u w=1u l=0.56u
.ends

.subckt nmos_3p3_V56RT2 a_n508_n144# a_n596_n100# a_n292_n100# a_28_n100# a_n452_n100#
+ a_n28_n144# a_132_n144# a_188_n100# a_n188_n144# a_292_n144# a_348_n100# a_n348_n144#
+ a_452_n144# a_508_n100# a_n132_n100# VSUBS
X0 a_n132_n100# a_n188_n144# a_n292_n100# VSUBS nfet_03v3 ad=0.26p pd=1.52u as=0.26p ps=1.52u w=1u l=0.28u
X1 a_188_n100# a_132_n144# a_28_n100# VSUBS nfet_03v3 ad=0.26p pd=1.52u as=0.26p ps=1.52u w=1u l=0.28u
X2 a_n292_n100# a_n348_n144# a_n452_n100# VSUBS nfet_03v3 ad=0.26p pd=1.52u as=0.26p ps=1.52u w=1u l=0.28u
X3 a_348_n100# a_292_n144# a_188_n100# VSUBS nfet_03v3 ad=0.26p pd=1.52u as=0.26p ps=1.52u w=1u l=0.28u
X4 a_28_n100# a_n28_n144# a_n132_n100# VSUBS nfet_03v3 ad=0.26p pd=1.52u as=0.26p ps=1.52u w=1u l=0.28u
X5 a_n452_n100# a_n508_n144# a_n596_n100# VSUBS nfet_03v3 ad=0.26p pd=1.52u as=0.44p ps=2.88u w=1u l=0.28u
X6 a_508_n100# a_452_n144# a_348_n100# VSUBS nfet_03v3 ad=0.44p pd=2.88u as=0.26p ps=1.52u w=1u l=0.28u
.ends

.subckt pmos_3p3_HDY8L7 a_56_n694# a_n144_n694# a_n56_24# a_n144_68# a_n144_n1456#
+ a_n56_n738# a_n144_830# a_n56_n1500# a_56_830# a_56_68# a_n56_786# w_n230_n1586#
+ a_56_n1456#
X0 a_56_830# a_n56_786# a_n144_830# w_n230_n1586# pfet_03v3 ad=1.38p pd=7.14u as=1.38p ps=7.14u w=3.13u l=0.56u
X1 a_56_n694# a_n56_n738# a_n144_n694# w_n230_n1586# pfet_03v3 ad=1.38p pd=7.14u as=1.38p ps=7.14u w=3.13u l=0.56u
X2 a_56_n1456# a_n56_n1500# a_n144_n1456# w_n230_n1586# pfet_03v3 ad=1.38p pd=7.14u as=1.38p ps=7.14u w=3.13u l=0.56u
X3 a_56_68# a_n56_24# a_n144_68# w_n230_n1586# pfet_03v3 ad=1.38p pd=7.14u as=1.38p ps=7.14u w=3.13u l=0.56u
.ends

.subckt pmos_3p3_Q3NTJU a_428_68# a_428_n668# a_n1068_n1448# a_212_n1448# a_n748_n712#
+ a_n108_n1448# a_n852_68# a_n212_804# a_852_n712# a_52_n712# a_n428_760# a_692_24#
+ a_n908_24# a_108_n1404# a_n372_804# a_n52_n668# a_n852_n668# a_1012_24# a_n588_760#
+ a_n908_760# a_n1156_n1404# a_52_24# a_n52_68# a_n852_804# a_1068_n1404# a_268_68#
+ a_52_n1448# a_n1068_760# a_n1012_n668# a_n852_n1404# a_n372_n1404# a_532_24# a_n108_n712#
+ a_588_n668# a_n692_68# a_n1012_68# a_1012_n1448# a_212_n712# a_108_804# a_n908_n712#
+ a_n748_24# a_692_n1448# a_108_68# a_n1068_n712# a_n588_n1448# a_268_804# a_532_760#
+ a_n212_n668# a_1012_n712# a_1012_760# a_748_804# a_n1068_24# a_692_760# a_n532_68#
+ a_588_n1404# a_52_760# a_372_24# a_n212_n1404# a_n268_n712# a_n588_24# a_n908_n1448#
+ a_532_n1448# a_372_n712# a_748_n668# a_n428_n1448# a_212_24# a_n372_n668# a_n372_68#
+ a_908_n1404# a_428_n1404# a_n1012_n1404# a_n428_24# a_908_68# a_n108_760# a_n268_760#
+ a_n212_68# a_n532_804# a_108_n668# a_n692_n1404# a_n428_n712# a_n748_760# a_n692_804#
+ a_n1012_804# a_532_n712# a_908_n668# a_n52_804# a_n268_24# a_n532_n668# a_n52_n1404#
+ w_n1242_n1534# a_748_68# a_n1156_68# a_212_760# a_n532_n1404# a_372_760# a_428_804#
+ a_268_n668# a_1068_68# a_n588_n712# a_n108_24# a_588_804# a_908_804# a_852_760#
+ a_852_n1448# a_n1156_804# a_1068_804# a_692_n712# a_n748_n1448# a_372_n1448# a_1068_n668#
+ a_n1156_n668# a_n268_n1448# a_588_68# a_n692_n668# a_748_n1404# a_852_24# a_268_n1404#
X0 a_748_804# a_692_760# a_588_804# w_n1242_n1534# pfet_03v3 ad=0.78p pd=3.52u as=0.78p ps=3.52u w=3u l=0.28u
X1 a_n52_n1404# a_n108_n1448# a_n212_n1404# w_n1242_n1534# pfet_03v3 ad=0.78p pd=3.52u as=0.78p ps=3.52u w=3u l=0.28u
X2 a_268_68# a_212_24# a_108_68# w_n1242_n1534# pfet_03v3 ad=0.78p pd=3.52u as=0.78p ps=3.52u w=3u l=0.28u
X3 a_n372_68# a_n428_24# a_n532_68# w_n1242_n1534# pfet_03v3 ad=0.78p pd=3.52u as=0.78p ps=3.52u w=3u l=0.28u
X4 a_108_n668# a_52_n712# a_n52_n668# w_n1242_n1534# pfet_03v3 ad=0.78p pd=3.52u as=0.78p ps=3.52u w=3u l=0.28u
X5 a_428_n668# a_372_n712# a_268_n668# w_n1242_n1534# pfet_03v3 ad=0.78p pd=3.52u as=0.78p ps=3.52u w=3u l=0.28u
X6 a_268_n668# a_212_n712# a_108_n668# w_n1242_n1534# pfet_03v3 ad=0.78p pd=3.52u as=0.78p ps=3.52u w=3u l=0.28u
X7 a_1068_n668# a_1012_n712# a_908_n668# w_n1242_n1534# pfet_03v3 ad=1.32p pd=6.88u as=0.78p ps=3.52u w=3u l=0.28u
X8 a_268_n1404# a_212_n1448# a_108_n1404# w_n1242_n1534# pfet_03v3 ad=0.78p pd=3.52u as=0.78p ps=3.52u w=3u l=0.28u
X9 a_108_804# a_52_760# a_n52_804# w_n1242_n1534# pfet_03v3 ad=0.78p pd=3.52u as=0.78p ps=3.52u w=3u l=0.28u
X10 a_908_68# a_852_24# a_748_68# w_n1242_n1534# pfet_03v3 ad=0.78p pd=3.52u as=0.78p ps=3.52u w=3u l=0.28u
X11 a_n212_n668# a_n268_n712# a_n372_n668# w_n1242_n1534# pfet_03v3 ad=0.78p pd=3.52u as=0.78p ps=3.52u w=3u l=0.28u
X12 a_n372_n1404# a_n428_n1448# a_n532_n1404# w_n1242_n1534# pfet_03v3 ad=0.78p pd=3.52u as=0.78p ps=3.52u w=3u l=0.28u
X13 a_268_804# a_212_760# a_108_804# w_n1242_n1534# pfet_03v3 ad=0.78p pd=3.52u as=0.78p ps=3.52u w=3u l=0.28u
X14 a_n852_n1404# a_n908_n1448# a_n1012_n1404# w_n1242_n1534# pfet_03v3 ad=0.78p pd=3.52u as=0.78p ps=3.52u w=3u l=0.28u
X15 a_1068_n1404# a_1012_n1448# a_908_n1404# w_n1242_n1534# pfet_03v3 ad=1.32p pd=6.88u as=0.78p ps=3.52u w=3u l=0.28u
X16 a_n212_68# a_n268_24# a_n372_68# w_n1242_n1534# pfet_03v3 ad=0.78p pd=3.52u as=0.78p ps=3.52u w=3u l=0.28u
X17 a_n52_n668# a_n108_n712# a_n212_n668# w_n1242_n1534# pfet_03v3 ad=0.78p pd=3.52u as=0.78p ps=3.52u w=3u l=0.28u
X18 a_n852_n668# a_n908_n712# a_n1012_n668# w_n1242_n1534# pfet_03v3 ad=0.78p pd=3.52u as=0.78p ps=3.52u w=3u l=0.28u
X19 a_n372_804# a_n428_760# a_n532_804# w_n1242_n1534# pfet_03v3 ad=0.78p pd=3.52u as=0.78p ps=3.52u w=3u l=0.28u
X20 a_n1012_n668# a_n1068_n712# a_n1156_n668# w_n1242_n1534# pfet_03v3 ad=0.78p pd=3.52u as=1.32p ps=6.88u w=3u l=0.28u
X21 a_n852_804# a_n908_760# a_n1012_804# w_n1242_n1534# pfet_03v3 ad=0.78p pd=3.52u as=0.78p ps=3.52u w=3u l=0.28u
X22 a_428_804# a_372_760# a_268_804# w_n1242_n1534# pfet_03v3 ad=0.78p pd=3.52u as=0.78p ps=3.52u w=3u l=0.28u
X23 a_588_n1404# a_532_n1448# a_428_n1404# w_n1242_n1534# pfet_03v3 ad=0.78p pd=3.52u as=0.78p ps=3.52u w=3u l=0.28u
X24 a_908_804# a_852_760# a_748_804# w_n1242_n1534# pfet_03v3 ad=0.78p pd=3.52u as=0.78p ps=3.52u w=3u l=0.28u
X25 a_n852_68# a_n908_24# a_n1012_68# w_n1242_n1534# pfet_03v3 ad=0.78p pd=3.52u as=0.78p ps=3.52u w=3u l=0.28u
X26 a_748_68# a_692_24# a_588_68# w_n1242_n1534# pfet_03v3 ad=0.78p pd=3.52u as=0.78p ps=3.52u w=3u l=0.28u
X27 a_908_n668# a_852_n712# a_748_n668# w_n1242_n1534# pfet_03v3 ad=0.78p pd=3.52u as=0.78p ps=3.52u w=3u l=0.28u
X28 a_n212_n1404# a_n268_n1448# a_n372_n1404# w_n1242_n1534# pfet_03v3 ad=0.78p pd=3.52u as=0.78p ps=3.52u w=3u l=0.28u
X29 a_n1012_804# a_n1068_760# a_n1156_804# w_n1242_n1534# pfet_03v3 ad=0.78p pd=3.52u as=1.32p ps=6.88u w=3u l=0.28u
X30 a_n52_68# a_n108_24# a_n212_68# w_n1242_n1534# pfet_03v3 ad=0.78p pd=3.52u as=0.78p ps=3.52u w=3u l=0.28u
X31 a_n692_n1404# a_n748_n1448# a_n852_n1404# w_n1242_n1534# pfet_03v3 ad=0.78p pd=3.52u as=0.78p ps=3.52u w=3u l=0.28u
X32 a_n532_804# a_n588_760# a_n692_804# w_n1242_n1534# pfet_03v3 ad=0.78p pd=3.52u as=0.78p ps=3.52u w=3u l=0.28u
X33 a_108_68# a_52_24# a_n52_68# w_n1242_n1534# pfet_03v3 ad=0.78p pd=3.52u as=0.78p ps=3.52u w=3u l=0.28u
X34 a_588_68# a_532_24# a_428_68# w_n1242_n1534# pfet_03v3 ad=0.78p pd=3.52u as=0.78p ps=3.52u w=3u l=0.28u
X35 a_n692_n668# a_n748_n712# a_n852_n668# w_n1242_n1534# pfet_03v3 ad=0.78p pd=3.52u as=0.78p ps=3.52u w=3u l=0.28u
X36 a_428_n1404# a_372_n1448# a_268_n1404# w_n1242_n1534# pfet_03v3 ad=0.78p pd=3.52u as=0.78p ps=3.52u w=3u l=0.28u
X37 a_n1012_68# a_n1068_24# a_n1156_68# w_n1242_n1534# pfet_03v3 ad=0.78p pd=3.52u as=1.32p ps=6.88u w=3u l=0.28u
X38 a_n692_68# a_n748_24# a_n852_68# w_n1242_n1534# pfet_03v3 ad=0.78p pd=3.52u as=0.78p ps=3.52u w=3u l=0.28u
X39 a_908_n1404# a_852_n1448# a_748_n1404# w_n1242_n1534# pfet_03v3 ad=0.78p pd=3.52u as=0.78p ps=3.52u w=3u l=0.28u
X40 a_n1012_n1404# a_n1068_n1448# a_n1156_n1404# w_n1242_n1534# pfet_03v3 ad=0.78p pd=3.52u as=1.32p ps=6.88u w=3u l=0.28u
X41 a_n532_n1404# a_n588_n1448# a_n692_n1404# w_n1242_n1534# pfet_03v3 ad=0.78p pd=3.52u as=0.78p ps=3.52u w=3u l=0.28u
X42 a_748_n668# a_692_n712# a_588_n668# w_n1242_n1534# pfet_03v3 ad=0.78p pd=3.52u as=0.78p ps=3.52u w=3u l=0.28u
X43 a_n52_804# a_n108_760# a_n212_804# w_n1242_n1534# pfet_03v3 ad=0.78p pd=3.52u as=0.78p ps=3.52u w=3u l=0.28u
X44 a_108_n1404# a_52_n1448# a_n52_n1404# w_n1242_n1534# pfet_03v3 ad=0.78p pd=3.52u as=0.78p ps=3.52u w=3u l=0.28u
X45 a_588_n668# a_532_n712# a_428_n668# w_n1242_n1534# pfet_03v3 ad=0.78p pd=3.52u as=0.78p ps=3.52u w=3u l=0.28u
X46 a_588_804# a_532_760# a_428_804# w_n1242_n1534# pfet_03v3 ad=0.78p pd=3.52u as=0.78p ps=3.52u w=3u l=0.28u
X47 a_428_68# a_372_24# a_268_68# w_n1242_n1534# pfet_03v3 ad=0.78p pd=3.52u as=0.78p ps=3.52u w=3u l=0.28u
X48 a_748_n1404# a_692_n1448# a_588_n1404# w_n1242_n1534# pfet_03v3 ad=0.78p pd=3.52u as=0.78p ps=3.52u w=3u l=0.28u
X49 a_n532_68# a_n588_24# a_n692_68# w_n1242_n1534# pfet_03v3 ad=0.78p pd=3.52u as=0.78p ps=3.52u w=3u l=0.28u