* NGSPICE file created from CM_MSB_flat.ext - technology: gf180mcuC

.subckt CM_MSB_flat OUT VSS IM IM_T
X0 OUT IM_T.t0 a_n3052_1537.t73 VSS.t93 nfet_03v3 ad=0.156p pd=1.12u as=0.156p ps=1.12u w=0.6u l=0.5u
X1 VSS IM.t0 a_n3052_1537.t114 VSS.t79 nfet_03v3 ad=0.156p pd=1.12u as=0.156p ps=1.12u w=0.6u l=0.5u
X2 OUT IM_T.t1 a_n3052_1537.t72 VSS.t2 nfet_03v3 ad=0.156p pd=1.12u as=0.156p ps=1.12u w=0.6u l=0.5u
X3 VSS IM.t2 a_n3052_1537.t118 VSS.t2 nfet_03v3 ad=0.156p pd=1.12u as=0.156p ps=1.12u w=0.6u l=0.5u
X4 VSS IM.t3 a_n3052_1537.t25 VSS.t54 nfet_03v3 ad=0.156p pd=1.12u as=0.156p ps=1.12u w=0.6u l=0.5u
X5 VSS IM.t4 a_n3052_1537.t39 VSS.t16 nfet_03v3 ad=0.156p pd=1.12u as=0.156p ps=1.12u w=0.6u l=0.5u
X6 OUT IM_T.t2 a_n3052_1537.t71 VSS.t23 nfet_03v3 ad=0.156p pd=1.12u as=0.156p ps=1.12u w=0.6u l=0.5u
X7 OUT IM_T.t3 a_n3052_1537.t70 VSS.t5 nfet_03v3 ad=0.156p pd=1.12u as=0.156p ps=1.12u w=0.6u l=0.5u
X8 VSS IM.t5 a_n3052_1537.t127 VSS.t37 nfet_03v3 ad=0.156p pd=1.12u as=0.156p ps=1.12u w=0.6u l=0.5u
X9 OUT IM_T.t4 a_n3052_1537.t69 VSS.t64 nfet_03v3 ad=0.156p pd=1.12u as=0.156p ps=1.12u w=0.6u l=0.5u
X10 VSS IM.t7 a_n3052_1537.t14 VSS.t31 nfet_03v3 ad=0.156p pd=1.12u as=0.156p ps=1.12u w=0.6u l=0.5u
X11 VSS IM.t8 a_n3052_1537.t13 VSS.t23 nfet_03v3 ad=0.156p pd=1.12u as=0.156p ps=1.12u w=0.6u l=0.5u
X12 OUT IM_T.t5 a_n3052_1537.t68 VSS.t16 nfet_03v3 ad=0.156p pd=1.12u as=0.156p ps=1.12u w=0.6u l=0.5u
X13 VSS IM.t9 a_n3052_1537.t30 VSS.t64 nfet_03v3 ad=0.156p pd=1.12u as=0.156p ps=1.12u w=0.6u l=0.5u
X14 VSS IM.t14 a_n3052_1537.t113 VSS.t93 nfet_03v3 ad=0.156p pd=1.12u as=0.156p ps=1.12u w=0.6u l=0.5u
X15 VSS IM.t15 a_n3052_1537.t24 VSS.t51 nfet_03v3 ad=0.156p pd=1.12u as=0.156p ps=1.12u w=0.6u l=0.5u
X16 VSS IM.t16 a_n3052_1537.t23 VSS.t48 nfet_03v3 ad=0.156p pd=1.12u as=0.156p ps=1.12u w=0.6u l=0.5u
X17 OUT IM_T.t11 a_n3052_1537.t67 VSS.t79 nfet_03v3 ad=0.156p pd=1.12u as=0.156p ps=1.12u w=0.6u l=0.5u
X18 OUT IM_T.t12 a_n3052_1537.t66 VSS.t93 nfet_03v3 ad=0.156p pd=1.12u as=0.156p ps=1.12u w=0.6u l=0.5u
X19 VSS IM.t17 a_n3052_1537.t37 VSS.t79 nfet_03v3 ad=0.156p pd=1.12u as=0.156p ps=1.12u w=0.6u l=0.5u
X20 VSS IM.t18 a_n3052_1537.t41 VSS.t88 nfet_03v3 ad=0.156p pd=1.12u as=0.156p ps=1.12u w=0.6u l=0.5u
X21 OUT IM_T.t13 a_n3052_1537.t65 VSS.t54 nfet_03v3 ad=0.156p pd=1.12u as=0.156p ps=1.12u w=0.6u l=0.5u
X22 VSS IM.t19 a_n3052_1537.t29 VSS.t5 nfet_03v3 ad=0.156p pd=1.12u as=0.156p ps=1.12u w=0.6u l=0.5u
X23 VSS IM.t20 a_n3052_1537.t121 VSS.t54 nfet_03v3 ad=0.156p pd=1.12u as=0.156p ps=1.12u w=0.6u l=0.5u
X24 OUT IM_T.t14 a_n3052_1537.t64 VSS.t2 nfet_03v3 ad=0.156p pd=1.12u as=0.156p ps=1.12u w=0.6u l=0.5u
X25 OUT IM_T.t15 a_n3052_1537.t63 VSS.t5 nfet_03v3 ad=0.156p pd=1.12u as=0.156p ps=1.12u w=0.6u l=0.5u
X26 VSS IM.t23 a_n3052_1537.t7 VSS.t16 nfet_03v3 ad=0.156p pd=1.12u as=0.156p ps=1.12u w=0.6u l=0.5u
X27 OUT IM_T.t19 a_n3052_1537.t62 VSS.t23 nfet_03v3 ad=0.156p pd=1.12u as=0.156p ps=1.12u w=0.6u l=0.5u
X28 OUT IM_T.t21 a_n3052_1537.t61 VSS.t64 nfet_03v3 ad=0.156p pd=1.12u as=0.156p ps=1.12u w=0.6u l=0.5u
X29 OUT IM_T.t23 a_n3052_1537.t60 VSS.t51 nfet_03v3 ad=0.156p pd=1.12u as=0.156p ps=1.12u w=0.6u l=0.5u
X30 VSS IM.t28 a_n3052_1537.t107 VSS.t92 nfet_03v3 ad=0.156p pd=1.12u as=0.156p ps=1.12u w=0.6u l=0.5u
X31 VSS IM.t29 a_n3052_1537.t28 VSS.t51 nfet_03v3 ad=0.156p pd=1.12u as=0.156p ps=1.12u w=0.6u l=0.5u
X32 OUT IM_T.t26 a_n3052_1537.t59 VSS.t88 nfet_03v3 ad=0.156p pd=1.12u as=0.156p ps=1.12u w=0.6u l=0.5u
X33 OUT IM_T.t27 a_n3052_1537.t58 VSS.t69 nfet_03v3 ad=0.156p pd=1.12u as=0.156p ps=1.12u w=0.6u l=0.5u
X34 VSS IM.t31 a_n3052_1537.t117 VSS.t93 nfet_03v3 ad=0.156p pd=1.12u as=0.156p ps=1.12u w=0.6u l=0.5u
X35 VSS IM.t32 a_n3052_1537.t115 VSS.t88 nfet_03v3 ad=0.156p pd=1.12u as=0.156p ps=1.12u w=0.6u l=0.5u
X36 OUT IM_T.t28 a_n3052_1537.t57 VSS.t79 nfet_03v3 ad=0.156p pd=1.12u as=0.156p ps=1.12u w=0.6u l=0.5u
X37 OUT IM_T.t29 a_n3052_1537.t56 VSS.t34 nfet_03v3 ad=0.264p pd=2.08u as=0.156p ps=1.12u w=0.6u l=0.5u
X38 OUT IM_T.t31 a_n3052_1537.t55 VSS.t54 nfet_03v3 ad=0.156p pd=1.12u as=0.156p ps=1.12u w=0.6u l=0.5u
X39 VSS IM.t34 a_n3052_1537.t2 VSS.t5 nfet_03v3 ad=0.156p pd=1.12u as=0.156p ps=1.12u w=0.6u l=0.5u
X40 OUT IM_T.t36 a_n3052_1537.t54 VSS.t92 nfet_03v3 ad=0.156p pd=1.12u as=0.156p ps=1.12u w=0.6u l=0.5u
X41 VSS IM.t40 a_n3052_1537.t122 VSS.t92 nfet_03v3 ad=0.156p pd=1.12u as=0.156p ps=1.12u w=0.6u l=0.5u
X42 VSS IM.t41 a_n3052_1537.t32 VSS.t69 nfet_03v3 ad=0.156p pd=1.12u as=0.156p ps=1.12u w=0.6u l=0.5u
X43 OUT IM_T.t42 a_n3052_1537.t53 VSS.t37 nfet_03v3 ad=0.156p pd=1.12u as=0.156p ps=1.12u w=0.6u l=0.5u
X44 OUT IM_T.t43 a_n3052_1537.t52 VSS.t51 nfet_03v3 ad=0.156p pd=1.12u as=0.156p ps=1.12u w=0.6u l=0.5u
X45 OUT IM_T.t44 a_n3052_1537.t51 VSS.t69 nfet_03v3 ad=0.156p pd=1.12u as=0.156p ps=1.12u w=0.6u l=0.5u
X46 OUT IM_T.t45 a_n3052_1537.t50 VSS.t31 nfet_03v3 ad=0.156p pd=1.12u as=0.156p ps=1.12u w=0.6u l=0.5u
X47 VSS IM.t43 a_n3052_1537.t106 VSS.t34 nfet_03v3 ad=0.264p pd=2.08u as=0.156p ps=1.12u w=0.6u l=0.5u
X48 OUT IM_T.t47 a_n3052_1537.t49 VSS.t88 nfet_03v3 ad=0.156p pd=1.12u as=0.156p ps=1.12u w=0.6u l=0.5u
X49 OUT IM_T.t48 a_n3052_1537.t48 VSS.t34 nfet_03v3 ad=0.264p pd=2.08u as=0.156p ps=1.12u w=0.6u l=0.5u
X50 OUT IM_T.t50 a_n3052_1537.t47 VSS.t48 nfet_03v3 ad=0.156p pd=1.12u as=0.156p ps=1.12u w=0.6u l=0.5u
X51 VSS IM.t49 a_n3052_1537.t16 VSS.t37 nfet_03v3 ad=0.156p pd=1.12u as=0.156p ps=1.12u w=0.6u l=0.5u
X52 VSS IM.t50 a_n3052_1537.t31 VSS.t31 nfet_03v3 ad=0.156p pd=1.12u as=0.156p ps=1.12u w=0.6u l=0.5u
X53 VSS IM.t51 a_n3052_1537.t1 VSS.t2 nfet_03v3 ad=0.156p pd=1.12u as=0.156p ps=1.12u w=0.6u l=0.5u
X54 OUT IM_T.t54 a_n3052_1537.t46 VSS.t92 nfet_03v3 ad=0.156p pd=1.12u as=0.156p ps=1.12u w=0.6u l=0.5u
X55 OUT IM_T.t55 a_n3052_1537.t45 VSS.t37 nfet_03v3 ad=0.156p pd=1.12u as=0.156p ps=1.12u w=0.6u l=0.5u
X56 OUT IM_T.t57 a_n3052_1537.t44 VSS.t31 nfet_03v3 ad=0.156p pd=1.12u as=0.156p ps=1.12u w=0.6u l=0.5u
X57 VSS IM.t55 a_n3052_1537.t35 VSS.t69 nfet_03v3 ad=0.156p pd=1.12u as=0.156p ps=1.12u w=0.6u l=0.5u
X58 OUT IM_T.t58 a_n3052_1537.t43 VSS.t16 nfet_03v3 ad=0.156p pd=1.12u as=0.156p ps=1.12u w=0.6u l=0.5u
X59 VSS IM.t56 a_n3052_1537.t10 VSS.t23 nfet_03v3 ad=0.156p pd=1.12u as=0.156p ps=1.12u w=0.6u l=0.5u
X60 VSS IM.t57 a_n3052_1537.t124 VSS.t64 nfet_03v3 ad=0.156p pd=1.12u as=0.156p ps=1.12u w=0.6u l=0.5u
X61 VSS IM.t60 a_n3052_1537.t15 VSS.t34 nfet_03v3 ad=0.264p pd=2.08u as=0.156p ps=1.12u w=0.6u l=0.5u
X62 VSS IM.t61 a_n3052_1537.t116 VSS.t48 nfet_03v3 ad=0.156p pd=1.12u as=0.156p ps=1.12u w=0.6u l=0.5u
X63 OUT IM_T.t63 a_n3052_1537.t42 VSS.t48 nfet_03v3 ad=0.156p pd=1.12u as=0.156p ps=1.12u w=0.6u l=0.5u
R0 IM_T.n31 IM_T.t57 19.2195
R1 IM_T.n1 IM_T.t45 19.2195
R2 IM_T.n30 IM_T.t40 19.1465
R3 IM_T.n0 IM_T.t25 19.1465
R4 IM_T.n37 IM_T.t63 19.0005
R5 IM_T.n7 IM_T.t50 19.0005
R6 IM_T.n40 IM_T.t60 18.9275
R7 IM_T.n39 IM_T.t5 18.9275
R8 IM_T.n38 IM_T.t41 18.9275
R9 IM_T.n36 IM_T.t7 18.9275
R10 IM_T.n35 IM_T.t55 18.9275
R11 IM_T.n10 IM_T.t46 18.9275
R12 IM_T.n9 IM_T.t58 18.9275
R13 IM_T.n8 IM_T.t24 18.9275
R14 IM_T.n6 IM_T.t61 18.9275
R15 IM_T.n5 IM_T.t42 18.9275
R16 IM_T.n41 IM_T.t44 18.8545
R17 IM_T.n34 IM_T.t18 18.8545
R18 IM_T.n11 IM_T.t27 18.8545
R19 IM_T.n4 IM_T.t8 18.8545
R20 IM_T.n42 IM_T.t49 18.7815
R21 IM_T.n12 IM_T.t30 18.7815
R22 IM_T.n33 IM_T.t15 18.6355
R23 IM_T.n3 IM_T.t3 18.6355
R24 IM_T.n32 IM_T.t52 18.6122
R25 IM_T.n2 IM_T.t35 18.6122
R26 IM_T.n43 IM_T.t12 17.4983
R27 IM_T.n13 IM_T.t0 17.4983
R28 IM_T.n30 IM_T.t48 16.5254
R29 IM_T.n0 IM_T.t29 16.5254
R30 IM_T.n23 IM_T.t21 13.117
R31 IM_T.n22 IM_T.t56 13.117
R32 IM_T.n21 IM_T.t54 13.117
R33 IM_T.n19 IM_T.t14 13.117
R34 IM_T.n54 IM_T.t4 13.117
R35 IM_T.n53 IM_T.t38 13.117
R36 IM_T.n52 IM_T.t36 13.117
R37 IM_T.n50 IM_T.t1 13.117
R38 IM_T.n20 IM_T.t37 13.044
R39 IM_T.n51 IM_T.t17 13.044
R40 IM_T.n14 IM_T.t16 13.0399
R41 IM_T.n44 IM_T.t33 13.0389
R42 IM_T.n15 IM_T.t53 11.8779
R43 IM_T.n46 IM_T.t34 11.8779
R44 IM_T.n17 IM_T.t31 11.695
R45 IM_T.n48 IM_T.t13 11.695
R46 IM_T.n16 IM_T.t39 11.5172
R47 IM_T.n47 IM_T.t20 11.5172
R48 IM_T.n15 IM_T.t19 11.5171
R49 IM_T.n46 IM_T.t2 11.5171
R50 IM_T.n18 IM_T.t51 11.3785
R51 IM_T.n49 IM_T.t32 11.3785
R52 IM_T.n29 IM_T.t47 11.2877
R53 IM_T.n60 IM_T.t26 11.2877
R54 IM_T.n28 IM_T.t10 11.2323
R55 IM_T.n27 IM_T.t28 11.2323
R56 IM_T.n26 IM_T.t22 11.2323
R57 IM_T.n25 IM_T.t43 11.2323
R58 IM_T.n24 IM_T.t9 11.2323
R59 IM_T.n59 IM_T.t62 11.2323
R60 IM_T.n58 IM_T.t11 11.2323
R61 IM_T.n57 IM_T.t6 11.2323
R62 IM_T.n56 IM_T.t23 11.2323
R63 IM_T.n55 IM_T.t59 11.2323
R64 IM_T.n45 IM_T.n29 1.80289
R65 IM_T IM_T.n61 1.41761
R66 IM_T.n18 IM_T.n17 0.959739
R67 IM_T.n49 IM_T.n48 0.959739
R68 IM_T.n24 IM_T.n23 0.958473
R69 IM_T.n55 IM_T.n54 0.958473
R70 IM_T.n44 IM_T.n43 0.956783
R71 IM_T.n14 IM_T.n13 0.956783
R72 IM_T.n16 IM_T.n15 0.953349
R73 IM_T.n47 IM_T.n46 0.953349
R74 IM_T.n20 IM_T.n19 0.949676
R75 IM_T.n22 IM_T.n21 0.949676
R76 IM_T.n51 IM_T.n50 0.949676
R77 IM_T.n53 IM_T.n52 0.949676
R78 IM_T.n26 IM_T.n25 0.948963
R79 IM_T.n28 IM_T.n27 0.948963
R80 IM_T.n57 IM_T.n56 0.948963
R81 IM_T.n59 IM_T.n58 0.948963
R82 IM_T.n32 IM_T.n31 0.94655
R83 IM_T.n2 IM_T.n1 0.94655
R84 IM_T.n34 IM_T.n33 0.935581
R85 IM_T.n4 IM_T.n3 0.935581
R86 IM_T.n42 IM_T.n41 0.928374
R87 IM_T.n12 IM_T.n11 0.928374
R88 IM_T.n40 IM_T.n39 0.927508
R89 IM_T.n10 IM_T.n9 0.927508
R90 IM_T.n38 IM_T.n37 0.92643
R91 IM_T.n8 IM_T.n7 0.92643
R92 IM_T.n36 IM_T.n35 0.922043
R93 IM_T.n6 IM_T.n5 0.922043
R94 IM_T.n61 IM_T.n60 0.716462
R95 IM_T.n61 IM_T.n45 0.550143
R96 IM_T.n45 IM_T.n44 0.381783
R97 IM_T.n21 IM_T.n20 0.293962
R98 IM_T.n23 IM_T.n22 0.293962
R99 IM_T.n52 IM_T.n51 0.293962
R100 IM_T.n54 IM_T.n53 0.293962
R101 IM_T.n43 IM_T.n42 0.293436
R102 IM_T.n13 IM_T.n12 0.293436
R103 IM_T.n29 IM_T.n28 0.29325
R104 IM_T.n60 IM_T.n59 0.29325
R105 IM_T.n25 IM_T.n24 0.293248
R106 IM_T.n27 IM_T.n26 0.293248
R107 IM_T.n56 IM_T.n55 0.293248
R108 IM_T.n58 IM_T.n57 0.293248
R109 IM_T.n19 IM_T.n18 0.292317
R110 IM_T.n50 IM_T.n49 0.292317
R111 IM_T.n33 IM_T.n32 0.290193
R112 IM_T.n3 IM_T.n2 0.290193
R113 IM_T.n31 IM_T.n30 0.287973
R114 IM_T.n1 IM_T.n0 0.287973
R115 IM_T.n41 IM_T.n40 0.283211
R116 IM_T.n11 IM_T.n10 0.283211
R117 IM_T.n17 IM_T.n16 0.282382
R118 IM_T.n48 IM_T.n47 0.282382
R119 IM_T.n39 IM_T.n38 0.266917
R120 IM_T.n9 IM_T.n8 0.266917
R121 IM_T.n37 IM_T.n36 0.265894
R122 IM_T.n7 IM_T.n6 0.265894
R123 IM_T.n35 IM_T.n34 0.264853
R124 IM_T.n5 IM_T.n4 0.264853
R125 IM_T IM_T.n14 0.023777
R126 a_n3052_1537.n25 a_n3052_1537.n87 5.74762
R127 a_n3052_1537.n127 a_n3052_1537.n126 5.60881
R128 a_n3052_1537.n17 a_n3052_1537.n129 5.6025
R129 a_n3052_1537.n24 a_n3052_1537.n138 5.60219
R130 a_n3052_1537.n136 a_n3052_1537.n135 5.60153
R131 a_n3052_1537.n23 a_n3052_1537.n140 5.60153
R132 a_n3052_1537.n19 a_n3052_1537.n142 5.60153
R133 a_n3052_1537.n20 a_n3052_1537.n133 5.59961
R134 a_n3052_1537.n149 a_n3052_1537.n148 5.59909
R135 a_n3052_1537.n14 a_n3052_1537.n155 5.59909
R136 a_n3052_1537.n177 a_n3052_1537.n176 5.59909
R137 a_n3052_1537.n16 a_n3052_1537.n144 5.59846
R138 a_n3052_1537.n22 a_n3052_1537.n146 5.59846
R139 a_n3052_1537.n18 a_n3052_1537.n151 5.59846
R140 a_n3052_1537.n15 a_n3052_1537.n153 5.59846
R141 a_n3052_1537.n12 a_n3052_1537.n174 5.59736
R142 a_n3052_1537.n167 a_n3052_1537.n166 5.59736
R143 a_n3052_1537.n13 a_n3052_1537.n161 5.57956
R144 a_n3052_1537.n21 a_n3052_1537.n131 5.5637
R145 a_n3052_1537.n3 a_n3052_1537.n93 5.37672
R146 a_n3052_1537.n2 a_n3052_1537.n71 5.35505
R147 a_n3052_1537.n25 a_n3052_1537.n84 4.85608
R148 a_n3052_1537.n100 a_n3052_1537.n99 4.83436
R149 a_n3052_1537.n181 a_n3052_1537.n164 4.8288
R150 a_n3052_1537.n11 a_n3052_1537.n90 4.47301
R151 a_n3052_1537.n3 a_n3052_1537.n54 4.47246
R152 a_n3052_1537.n9 a_n3052_1537.n64 4.4716
R153 a_n3052_1537.n7 a_n3052_1537.n50 4.47154
R154 a_n3052_1537.n8 a_n3052_1537.n60 4.47056
R155 a_n3052_1537.n5 a_n3052_1537.n32 4.46964
R156 a_n3052_1537.n6 a_n3052_1537.n34 4.46871
R157 a_n3052_1537.n4 a_n3052_1537.n44 4.4685
R158 a_n3052_1537.n10 a_n3052_1537.n42 4.46847
R159 a_n3052_1537.n1 a_n3052_1537.n79 4.4575
R160 a_n3052_1537.n5 a_n3052_1537.n107 4.36107
R161 a_n3052_1537.n6 a_n3052_1537.n104 4.35838
R162 a_n3052_1537.n181 a_n3052_1537.n0 4.27958
R163 a_n3052_1537.n76 a_n3052_1537.n183 3.92043
R164 a_n3052_1537.n17 a_n3052_1537.n124 3.81382
R165 a_n3052_1537.n24 a_n3052_1537.n119 3.7897
R166 a_n3052_1537.n16 a_n3052_1537.n115 3.78883
R167 a_n3052_1537.n22 a_n3052_1537.n113 3.78447
R168 a_n3052_1537.n149 a_n3052_1537.n111 3.78341
R169 a_n3052_1537.n19 a_n3052_1537.n117 3.78151
R170 a_n3052_1537.n4 a_n3052_1537.n97 3.44975
R171 a_n3052_1537.n74 a_n3052_1537.n73 3.34693
R172 a_n3052_1537.n4 a_n3052_1537.n46 3.2906
R173 a_n3052_1537.n2 a_n3052_1537.n68 3.24218
R174 a_n3052_1537.n3 a_n3052_1537.n52 3.19764
R175 a_n3052_1537.n10 a_n3052_1537.n40 3.19762
R176 a_n3052_1537.n100 a_n3052_1537.n38 3.19663
R177 a_n3052_1537.n13 a_n3052_1537.n28 3.19613
R178 a_n3052_1537.n5 a_n3052_1537.n30 3.19613
R179 a_n3052_1537.n9 a_n3052_1537.n66 3.19571
R180 a_n3052_1537.n6 a_n3052_1537.n36 3.19476
R181 a_n3052_1537.n1 a_n3052_1537.n62 3.19277
R182 a_n3052_1537.n7 a_n3052_1537.n48 3.19128
R183 a_n3052_1537.n12 a_n3052_1537.n172 3.19014
R184 a_n3052_1537.n182 a_n3052_1537.n181 3.1895
R185 a_n3052_1537.n8 a_n3052_1537.n58 3.17357
R186 a_n3052_1537.n11 a_n3052_1537.n56 3.17137
R187 a_n3052_1537.n25 a_n3052_1537.n82 3.16163
R188 a_n3052_1537.n12 a_n3052_1537.n170 3.08127
R189 a_n3052_1537.n164 a_n3052_1537.t113 2.7305
R190 a_n3052_1537.n164 a_n3052_1537.n163 2.7305
R191 a_n3052_1537.n28 a_n3052_1537.t114 2.7305
R192 a_n3052_1537.n28 a_n3052_1537.n27 2.7305
R193 a_n3052_1537.n161 a_n3052_1537.t67 2.7305
R194 a_n3052_1537.n161 a_n3052_1537.n160 2.7305
R195 a_n3052_1537.n30 a_n3052_1537.t58 2.7305
R196 a_n3052_1537.n30 a_n3052_1537.n29 2.7305
R197 a_n3052_1537.n32 a_n3052_1537.t32 2.7305
R198 a_n3052_1537.n32 a_n3052_1537.n31 2.7305
R199 a_n3052_1537.n36 a_n3052_1537.t24 2.7305
R200 a_n3052_1537.n36 a_n3052_1537.n35 2.7305
R201 a_n3052_1537.n34 a_n3052_1537.t60 2.7305
R202 a_n3052_1537.n34 a_n3052_1537.n33 2.7305
R203 a_n3052_1537.n38 a_n3052_1537.t43 2.7305
R204 a_n3052_1537.n38 a_n3052_1537.n37 2.7305
R205 a_n3052_1537.n99 a_n3052_1537.t39 2.7305
R206 a_n3052_1537.n99 a_n3052_1537.n98 2.7305
R207 a_n3052_1537.n40 a_n3052_1537.t124 2.7305
R208 a_n3052_1537.n40 a_n3052_1537.n39 2.7305
R209 a_n3052_1537.n42 a_n3052_1537.t69 2.7305
R210 a_n3052_1537.n42 a_n3052_1537.n41 2.7305
R211 a_n3052_1537.n46 a_n3052_1537.t47 2.7305
R212 a_n3052_1537.n46 a_n3052_1537.n45 2.7305
R213 a_n3052_1537.n44 a_n3052_1537.t116 2.7305
R214 a_n3052_1537.n44 a_n3052_1537.n43 2.7305
R215 a_n3052_1537.n48 a_n3052_1537.t107 2.7305
R216 a_n3052_1537.n48 a_n3052_1537.n47 2.7305
R217 a_n3052_1537.n50 a_n3052_1537.t54 2.7305
R218 a_n3052_1537.n50 a_n3052_1537.n49 2.7305
R219 a_n3052_1537.n52 a_n3052_1537.t53 2.7305
R220 a_n3052_1537.n52 a_n3052_1537.n51 2.7305
R221 a_n3052_1537.n54 a_n3052_1537.t16 2.7305
R222 a_n3052_1537.n54 a_n3052_1537.n53 2.7305
R223 a_n3052_1537.n56 a_n3052_1537.t1 2.7305
R224 a_n3052_1537.n56 a_n3052_1537.n55 2.7305
R225 a_n3052_1537.n90 a_n3052_1537.t72 2.7305
R226 a_n3052_1537.n90 a_n3052_1537.n89 2.7305
R227 a_n3052_1537.n82 a_n3052_1537.t70 2.7305
R228 a_n3052_1537.n82 a_n3052_1537.n81 2.7305
R229 a_n3052_1537.n84 a_n3052_1537.t29 2.7305
R230 a_n3052_1537.n84 a_n3052_1537.n83 2.7305
R231 a_n3052_1537.n58 a_n3052_1537.t25 2.7305
R232 a_n3052_1537.n58 a_n3052_1537.n57 2.7305
R233 a_n3052_1537.n60 a_n3052_1537.t65 2.7305
R234 a_n3052_1537.n60 a_n3052_1537.n59 2.7305
R235 a_n3052_1537.n62 a_n3052_1537.t50 2.7305
R236 a_n3052_1537.n62 a_n3052_1537.n61 2.7305
R237 a_n3052_1537.n79 a_n3052_1537.t31 2.7305
R238 a_n3052_1537.n79 a_n3052_1537.n78 2.7305
R239 a_n3052_1537.n66 a_n3052_1537.t10 2.7305
R240 a_n3052_1537.n66 a_n3052_1537.n65 2.7305
R241 a_n3052_1537.n64 a_n3052_1537.t71 2.7305
R242 a_n3052_1537.n64 a_n3052_1537.n63 2.7305
R243 a_n3052_1537.n73 a_n3052_1537.t106 2.7305
R244 a_n3052_1537.n73 a_n3052_1537.n72 2.7305
R245 a_n3052_1537.n70 a_n3052_1537.t48 2.7305
R246 a_n3052_1537.n70 a_n3052_1537.n69 2.7305
R247 a_n3052_1537.n126 a_n3052_1537.t15 2.7305
R248 a_n3052_1537.n126 a_n3052_1537.n125 2.7305
R249 a_n3052_1537.n129 a_n3052_1537.t62 2.7305
R250 a_n3052_1537.n129 a_n3052_1537.n128 2.7305
R251 a_n3052_1537.n131 a_n3052_1537.t14 2.7305
R252 a_n3052_1537.n131 a_n3052_1537.n130 2.7305
R253 a_n3052_1537.n133 a_n3052_1537.t55 2.7305
R254 a_n3052_1537.n133 a_n3052_1537.n132 2.7305
R255 a_n3052_1537.n86 a_n3052_1537.t63 2.7305
R256 a_n3052_1537.n86 a_n3052_1537.n85 2.7305
R257 a_n3052_1537.n135 a_n3052_1537.t2 2.7305
R258 a_n3052_1537.n135 a_n3052_1537.n134 2.7305
R259 a_n3052_1537.n138 a_n3052_1537.t64 2.7305
R260 a_n3052_1537.n138 a_n3052_1537.n137 2.7305
R261 a_n3052_1537.n140 a_n3052_1537.t127 2.7305
R262 a_n3052_1537.n140 a_n3052_1537.n139 2.7305
R263 a_n3052_1537.n142 a_n3052_1537.t46 2.7305
R264 a_n3052_1537.n142 a_n3052_1537.n141 2.7305
R265 a_n3052_1537.n144 a_n3052_1537.t23 2.7305
R266 a_n3052_1537.n144 a_n3052_1537.n143 2.7305
R267 a_n3052_1537.n146 a_n3052_1537.t61 2.7305
R268 a_n3052_1537.n146 a_n3052_1537.n145 2.7305
R269 a_n3052_1537.n111 a_n3052_1537.t68 2.7305
R270 a_n3052_1537.n111 a_n3052_1537.n110 2.7305
R271 a_n3052_1537.n148 a_n3052_1537.t7 2.7305
R272 a_n3052_1537.n148 a_n3052_1537.n147 2.7305
R273 a_n3052_1537.n151 a_n3052_1537.t52 2.7305
R274 a_n3052_1537.n151 a_n3052_1537.n150 2.7305
R275 a_n3052_1537.n153 a_n3052_1537.t35 2.7305
R276 a_n3052_1537.n153 a_n3052_1537.n152 2.7305
R277 a_n3052_1537.n155 a_n3052_1537.t57 2.7305
R278 a_n3052_1537.n155 a_n3052_1537.n154 2.7305
R279 a_n3052_1537.n179 a_n3052_1537.t66 2.7305
R280 a_n3052_1537.n179 a_n3052_1537.n178 2.7305
R281 a_n3052_1537.n176 a_n3052_1537.t117 2.7305
R282 a_n3052_1537.n176 a_n3052_1537.n175 2.7305
R283 a_n3052_1537.n169 a_n3052_1537.t115 2.7305
R284 a_n3052_1537.n169 a_n3052_1537.n168 2.7305
R285 a_n3052_1537.n172 a_n3052_1537.t41 2.7305
R286 a_n3052_1537.n172 a_n3052_1537.n171 2.7305
R287 a_n3052_1537.n174 a_n3052_1537.t59 2.7305
R288 a_n3052_1537.n174 a_n3052_1537.n173 2.7305
R289 a_n3052_1537.n166 a_n3052_1537.t49 2.7305
R290 a_n3052_1537.n166 a_n3052_1537.n165 2.7305
R291 a_n3052_1537.n157 a_n3052_1537.t37 2.7305
R292 a_n3052_1537.n157 a_n3052_1537.n156 2.7305
R293 a_n3052_1537.n106 a_n3052_1537.t51 2.7305
R294 a_n3052_1537.n106 a_n3052_1537.n105 2.7305
R295 a_n3052_1537.n103 a_n3052_1537.t28 2.7305
R296 a_n3052_1537.n103 a_n3052_1537.n102 2.7305
R297 a_n3052_1537.n113 a_n3052_1537.t30 2.7305
R298 a_n3052_1537.n113 a_n3052_1537.n112 2.7305
R299 a_n3052_1537.n115 a_n3052_1537.t42 2.7305
R300 a_n3052_1537.n115 a_n3052_1537.n114 2.7305
R301 a_n3052_1537.n117 a_n3052_1537.t122 2.7305
R302 a_n3052_1537.n117 a_n3052_1537.n116 2.7305
R303 a_n3052_1537.n92 a_n3052_1537.t45 2.7305
R304 a_n3052_1537.n92 a_n3052_1537.n91 2.7305
R305 a_n3052_1537.n119 a_n3052_1537.t118 2.7305
R306 a_n3052_1537.n119 a_n3052_1537.n118 2.7305
R307 a_n3052_1537.n121 a_n3052_1537.t121 2.7305
R308 a_n3052_1537.n121 a_n3052_1537.n120 2.7305
R309 a_n3052_1537.n183 a_n3052_1537.t44 2.7305
R310 a_n3052_1537.n183 a_n3052_1537.n184 2.7305
R311 a_n3052_1537.n124 a_n3052_1537.t13 2.7305
R312 a_n3052_1537.n124 a_n3052_1537.n123 2.7305
R313 a_n3052_1537.n68 a_n3052_1537.t56 2.7305
R314 a_n3052_1537.n68 a_n3052_1537.n67 2.7305
R315 a_n3052_1537.t73 a_n3052_1537.n182 2.7305
R316 a_n3052_1537.n182 a_n3052_1537.n26 2.7305
R317 a_n3052_1537.n170 a_n3052_1537.n169 2.63594
R318 a_n3052_1537.n158 a_n3052_1537.n157 2.63336
R319 a_n3052_1537.n122 a_n3052_1537.n121 2.63261
R320 a_n3052_1537.n107 a_n3052_1537.n106 2.61432
R321 a_n3052_1537.n104 a_n3052_1537.n103 2.61345
R322 a_n3052_1537.n2 a_n3052_1537.n74 2.2505
R323 a_n3052_1537.n159 a_n3052_1537.n158 2.17225
R324 a_n3052_1537.n71 a_n3052_1537.n70 1.87826
R325 a_n3052_1537.n87 a_n3052_1537.n86 1.87136
R326 a_n3052_1537.n93 a_n3052_1537.n92 1.87089
R327 a_n3052_1537.n180 a_n3052_1537.n179 1.86883
R328 a_n3052_1537.n13 a_n3052_1537.n159 1.50495
R329 a_n3052_1537.n0 a_n3052_1537.n180 1.5005
R330 a_n3052_1537.n1 a_n3052_1537.n77 1.49815
R331 a_n3052_1537.n77 a_n3052_1537.n76 1.23658
R332 a_n3052_1537.n25 a_n3052_1537.n80 0.761262
R333 a_n3052_1537.n8 a_n3052_1537.n1 0.727293
R334 a_n3052_1537.n10 a_n3052_1537.n4 0.638537
R335 a_n3052_1537.n17 a_n3052_1537.n127 0.627677
R336 a_n3052_1537.n88 a_n3052_1537.n25 0.62642
R337 a_n3052_1537.n100 a_n3052_1537.n10 0.624708
R338 a_n3052_1537.n21 a_n3052_1537.n17 0.623591
R339 a_n3052_1537.n14 a_n3052_1537.n15 0.622993
R340 a_n3052_1537.n18 a_n3052_1537.n149 0.620654
R341 a_n3052_1537.n24 a_n3052_1537.n136 0.620186
R342 a_n3052_1537.n16 a_n3052_1537.n19 0.619982
R343 a_n3052_1537.n19 a_n3052_1537.n23 0.619921
R344 a_n3052_1537.n22 a_n3052_1537.n16 0.619453
R345 a_n3052_1537.n136 a_n3052_1537.n20 0.61773
R346 a_n3052_1537.n149 a_n3052_1537.n22 0.617643
R347 a_n3052_1537.n181 a_n3052_1537.n12 0.617591
R348 a_n3052_1537.n15 a_n3052_1537.n18 0.61691
R349 a_n3052_1537.n23 a_n3052_1537.n24 0.616707
R350 a_n3052_1537.n20 a_n3052_1537.n21 0.616213
R351 a_n3052_1537.n3 a_n3052_1537.n11 0.615122
R352 a_n3052_1537.n1 a_n3052_1537.n9 0.61453
R353 a_n3052_1537.n7 a_n3052_1537.n3 0.598978
R354 a_n3052_1537.n5 a_n3052_1537.n6 0.594365
R355 a_n3052_1537.n101 a_n3052_1537.n100 0.584548
R356 a_n3052_1537.n181 a_n3052_1537.n162 0.578671
R357 a_n3052_1537.n75 a_n3052_1537.n2 0.560147
R358 a_n3052_1537.n109 a_n3052_1537.n108 0.558258
R359 a_n3052_1537.n95 a_n3052_1537.n94 0.552563
R360 a_n3052_1537.n0 a_n3052_1537.n177 0.416896
R361 a_n3052_1537.n158 a_n3052_1537.n14 0.414088
R362 a_n3052_1537.n20 a_n3052_1537.n122 0.395356
R363 a_n3052_1537.n170 a_n3052_1537.n167 0.3913
R364 a_n3052_1537.n108 a_n3052_1537.n5 0.0413485
R365 a_n3052_1537.n4 a_n3052_1537.n95 0.0413129
R366 a_n3052_1537.n6 a_n3052_1537.n101 0.0410481
R367 a_n3052_1537.n94 a_n3052_1537.n7 0.0410465
R368 a_n3052_1537.n9 a_n3052_1537.n75 0.0407945
R369 a_n3052_1537.n80 a_n3052_1537.n8 0.040564
R370 a_n3052_1537.n11 a_n3052_1537.n88 0.0398722
R371 a_n3052_1537.n13 a_n3052_1537.n109 0.0348317
R372 a_n3052_1537.n162 a_n3052_1537.n13 0.0293889
R373 a_n3052_1537.n97 a_n3052_1537.n96 0.0290882
R374 OUT.n78 OUT.t30 6.88615
R375 OUT.n31 OUT.t47 6.83518
R376 OUT.n93 OUT.n47 6.08789
R377 OUT.n46 OUT.n0 6.08789
R378 OUT.n78 OUT.n77 3.6455
R379 OUT.n80 OUT.n73 3.6455
R380 OUT.n82 OUT.n69 3.6455
R381 OUT.n31 OUT.n30 3.5868
R382 OUT.n33 OUT.n26 3.5868
R383 OUT.n35 OUT.n22 3.5868
R384 OUT.n37 OUT.n18 3.5868
R385 OUT.n39 OUT.n14 3.5868
R386 OUT.n41 OUT.n10 3.5868
R387 OUT.n43 OUT.n6 3.5868
R388 OUT.n45 OUT.n2 3.5868
R389 OUT.n84 OUT.n65 3.58485
R390 OUT.n86 OUT.n61 3.58485
R391 OUT.n88 OUT.n57 3.58485
R392 OUT.n90 OUT.n53 3.58485
R393 OUT.n92 OUT.n49 3.58485
R394 OUT.n83 OUT.n67 3.35789
R395 OUT.n81 OUT.n71 3.35789
R396 OUT.n79 OUT.n75 3.35789
R397 OUT.n91 OUT.n51 3.35789
R398 OUT.n89 OUT.n55 3.35789
R399 OUT.n87 OUT.n59 3.35789
R400 OUT.n85 OUT.n63 3.35789
R401 OUT.n44 OUT.n4 3.35789
R402 OUT.n42 OUT.n8 3.35789
R403 OUT.n40 OUT.n12 3.35789
R404 OUT.n38 OUT.n16 3.35789
R405 OUT.n36 OUT.n20 3.35789
R406 OUT.n34 OUT.n24 3.35789
R407 OUT.n32 OUT.n28 3.35789
R408 OUT.n67 OUT.t22 2.7305
R409 OUT.n67 OUT.n66 2.7305
R410 OUT.n71 OUT.t3 2.7305
R411 OUT.n71 OUT.n70 2.7305
R412 OUT.n75 OUT.t14 2.7305
R413 OUT.n75 OUT.n74 2.7305
R414 OUT.n77 OUT.t53 2.7305
R415 OUT.n77 OUT.n76 2.7305
R416 OUT.n73 OUT.t41 2.7305
R417 OUT.n73 OUT.n72 2.7305
R418 OUT.n69 OUT.t54 2.7305
R419 OUT.n69 OUT.n68 2.7305
R420 OUT.n51 OUT.t23 2.7305
R421 OUT.n51 OUT.n50 2.7305
R422 OUT.n55 OUT.t11 2.7305
R423 OUT.n55 OUT.n54 2.7305
R424 OUT.n59 OUT.t45 2.7305
R425 OUT.n59 OUT.n58 2.7305
R426 OUT.n63 OUT.t56 2.7305
R427 OUT.n63 OUT.n62 2.7305
R428 OUT.n65 OUT.t7 2.7305
R429 OUT.n65 OUT.n64 2.7305
R430 OUT.n61 OUT.t26 2.7305
R431 OUT.n61 OUT.n60 2.7305
R432 OUT.n57 OUT.t12 2.7305
R433 OUT.n57 OUT.n56 2.7305
R434 OUT.n53 OUT.t24 2.7305
R435 OUT.n53 OUT.n52 2.7305
R436 OUT.n49 OUT.t10 2.7305
R437 OUT.n49 OUT.n48 2.7305
R438 OUT.n4 OUT.t38 2.7305
R439 OUT.n4 OUT.n3 2.7305
R440 OUT.n8 OUT.t28 2.7305
R441 OUT.n8 OUT.n7 2.7305
R442 OUT.n12 OUT.t55 2.7305
R443 OUT.n12 OUT.n11 2.7305
R444 OUT.n16 OUT.t2 2.7305
R445 OUT.n16 OUT.n15 2.7305
R446 OUT.n20 OUT.t39 2.7305
R447 OUT.n20 OUT.n19 2.7305
R448 OUT.n24 OUT.t17 2.7305
R449 OUT.n24 OUT.n23 2.7305
R450 OUT.n28 OUT.t33 2.7305
R451 OUT.n28 OUT.n27 2.7305
R452 OUT.n30 OUT.t1 2.7305
R453 OUT.n30 OUT.n29 2.7305
R454 OUT.n26 OUT.t57 2.7305
R455 OUT.n26 OUT.n25 2.7305
R456 OUT.n22 OUT.t4 2.7305
R457 OUT.n22 OUT.n21 2.7305
R458 OUT.n18 OUT.t25 2.7305
R459 OUT.n18 OUT.n17 2.7305
R460 OUT.n14 OUT.t46 2.7305
R461 OUT.n14 OUT.n13 2.7305
R462 OUT.n10 OUT.t31 2.7305
R463 OUT.n10 OUT.n9 2.7305
R464 OUT.n6 OUT.t43 2.7305
R465 OUT.n6 OUT.n5 2.7305
R466 OUT.n2 OUT.t29 2.7305
R467 OUT.n2 OUT.n1 2.7305
R468 OUT OUT.n93 0.841207
R469 OUT OUT.n46 0.814464
R470 OUT.n83 OUT.n82 0.798761
R471 OUT.n82 OUT.n81 0.798761
R472 OUT.n81 OUT.n80 0.798761
R473 OUT.n80 OUT.n79 0.798761
R474 OUT.n79 OUT.n78 0.798761
R475 OUT.n84 OUT.n83 0.75465
R476 OUT.n46 OUT.n45 0.483658
R477 OUT.n45 OUT.n44 0.483658
R478 OUT.n44 OUT.n43 0.483658
R479 OUT.n43 OUT.n42 0.483658
R480 OUT.n42 OUT.n41 0.483658
R481 OUT.n41 OUT.n40 0.483658
R482 OUT.n40 OUT.n39 0.483658
R483 OUT.n39 OUT.n38 0.483658
R484 OUT.n38 OUT.n37 0.483658
R485 OUT.n37 OUT.n36 0.483658
R486 OUT.n36 OUT.n35 0.483658
R487 OUT.n35 OUT.n34 0.483658
R488 OUT.n34 OUT.n33 0.483658
R489 OUT.n33 OUT.n32 0.483658
R490 OUT.n32 OUT.n31 0.483658
R491 OUT.n93 OUT.n92 0.477383
R492 OUT.n92 OUT.n91 0.477383
R493 OUT.n91 OUT.n90 0.477383
R494 OUT.n90 OUT.n89 0.477383
R495 OUT.n89 OUT.n88 0.477383
R496 OUT.n88 OUT.n87 0.477383
R497 OUT.n87 OUT.n86 0.477383
R498 OUT.n86 OUT.n85 0.477383
R499 OUT.n85 OUT.n84 0.477383
R500 VSS.t40 VSS.t34 270.613
R501 VSS.t23 VSS.t40 270.613
R502 VSS.t57 VSS.t23 270.613
R503 VSS.t31 VSS.t57 270.613
R504 VSS.t19 VSS.t31 270.613
R505 VSS.t54 VSS.t19 270.613
R506 VSS.t82 VSS.t54 270.613
R507 VSS.t5 VSS.t82 270.613
R508 VSS.t86 VSS.t5 270.613
R509 VSS.t2 VSS.t86 270.613
R510 VSS.t8 VSS.t2 270.613
R511 VSS.t37 VSS.t8 270.613
R512 VSS.t74 VSS.t37 270.613
R513 VSS.t92 VSS.t74 270.613
R514 VSS.t91 VSS.t92 270.613
R515 VSS.t48 VSS.t72 270.613
R516 VSS.t72 VSS.t64 270.613
R517 VSS.t64 VSS.t14 270.613
R518 VSS.t14 VSS.t16 270.613
R519 VSS.t16 VSS.t21 270.613
R520 VSS.t21 VSS.t51 270.613
R521 VSS.t51 VSS.t10 270.613
R522 VSS.t10 VSS.t69 270.613
R523 VSS.t69 VSS.t12 270.613
R524 VSS.t12 VSS.t79 270.613
R525 VSS.t79 VSS.t0 270.613
R526 VSS.t0 VSS.t93 270.613
R527 VSS.t93 VSS.t26 270.613
R528 VSS.t26 VSS.t88 270.613
R529 VSS.t88 VSS.t45 270.613
R530 VSS.n96 VSS.t48 145.918
R531 VSS.n75 VSS.t91 119.388
R532 VSS.n97 VSS.n74 109.01
R533 VSS.n83 VSS.n82 6.80249
R534 VSS.n52 VSS.n51 6.56261
R535 VSS.n68 VSS.t47 6.35398
R536 VSS.n20 VSS.t46 6.31289
R537 VSS.n96 VSS.n75 5.30662
R538 VSS.n96 VSS.n95 5.2005
R539 VSS.n70 VSS.n69 5.13001
R540 VSS.n69 VSS.n20 4.60824
R541 VSS.n4 VSS.n3 4.21304
R542 VSS.n67 VSS.n22 3.75115
R543 VSS.n65 VSS.n26 3.75115
R544 VSS.n63 VSS.n30 3.75115
R545 VSS.n61 VSS.n34 3.75115
R546 VSS.n58 VSS.n38 3.75115
R547 VSS.n56 VSS.n42 3.75115
R548 VSS.n54 VSS.n46 3.75115
R549 VSS.n52 VSS.n50 3.75115
R550 VSS.n70 VSS.n16 3.75115
R551 VSS.n71 VSS.n14 3.75115
R552 VSS.n72 VSS.n12 3.75115
R553 VSS.n73 VSS.n10 3.75115
R554 VSS.n99 VSS.n8 3.75115
R555 VSS.n100 VSS.n6 3.75115
R556 VSS.n4 VSS.n1 3.75115
R557 VSS.n53 VSS.n48 3.62398
R558 VSS.n55 VSS.n44 3.62398
R559 VSS.n57 VSS.n40 3.62398
R560 VSS.n60 VSS.n36 3.62398
R561 VSS.n62 VSS.n32 3.62398
R562 VSS.n64 VSS.n28 3.62398
R563 VSS.n66 VSS.n24 3.62398
R564 VSS.n83 VSS.n81 3.58289
R565 VSS.n84 VSS.n79 3.58289
R566 VSS.n85 VSS.n77 3.58289
R567 VSS.n94 VSS.n87 3.58289
R568 VSS.n93 VSS.n89 3.58289
R569 VSS.n92 VSS.n91 3.58289
R570 VSS.n19 VSS.n18 3.58289
R571 VSS.n48 VSS.t115 2.7305
R572 VSS.n48 VSS.n47 2.7305
R573 VSS.n44 VSS.t102 2.7305
R574 VSS.n44 VSS.n43 2.7305
R575 VSS.n40 VSS.t9 2.7305
R576 VSS.n40 VSS.n39 2.7305
R577 VSS.n36 VSS.t125 2.7305
R578 VSS.n36 VSS.n35 2.7305
R579 VSS.n32 VSS.t15 2.7305
R580 VSS.n32 VSS.n31 2.7305
R581 VSS.n28 VSS.t43 2.7305
R582 VSS.n28 VSS.n27 2.7305
R583 VSS.n24 VSS.t59 2.7305
R584 VSS.n24 VSS.n23 2.7305
R585 VSS.n22 VSS.t27 2.7305
R586 VSS.n22 VSS.n21 2.7305
R587 VSS.n26 VSS.t13 2.7305
R588 VSS.n26 VSS.n25 2.7305
R589 VSS.n30 VSS.t22 2.7305
R590 VSS.n30 VSS.n29 2.7305
R591 VSS.n34 VSS.t73 2.7305
R592 VSS.n34 VSS.n33 2.7305
R593 VSS.n38 VSS.t75 2.7305
R594 VSS.n38 VSS.n37 2.7305
R595 VSS.n42 VSS.t87 2.7305
R596 VSS.n42 VSS.n41 2.7305
R597 VSS.n46 VSS.t42 2.7305
R598 VSS.n46 VSS.n45 2.7305
R599 VSS.n50 VSS.t41 2.7305
R600 VSS.n50 VSS.n49 2.7305
R601 VSS.n81 VSS.t58 2.7305
R602 VSS.n81 VSS.n80 2.7305
R603 VSS.n79 VSS.t83 2.7305
R604 VSS.n79 VSS.n78 2.7305
R605 VSS.n77 VSS.t124 2.7305
R606 VSS.n77 VSS.n76 2.7305
R607 VSS.n87 VSS.t98 2.7305
R608 VSS.n87 VSS.n86 2.7305
R609 VSS.n89 VSS.t28 2.7305
R610 VSS.n89 VSS.n88 2.7305
R611 VSS.n91 VSS.t11 2.7305
R612 VSS.n91 VSS.n90 2.7305
R613 VSS.n18 VSS.t1 2.7305
R614 VSS.n18 VSS.n17 2.7305
R615 VSS.n16 VSS.t78 2.7305
R616 VSS.n16 VSS.n15 2.7305
R617 VSS.n14 VSS.t44 2.7305
R618 VSS.n14 VSS.n13 2.7305
R619 VSS.n12 VSS.t99 2.7305
R620 VSS.n12 VSS.n11 2.7305
R621 VSS.n10 VSS.t100 2.7305
R622 VSS.n10 VSS.n9 2.7305
R623 VSS.n8 VSS.t101 2.7305
R624 VSS.n8 VSS.n7 2.7305
R625 VSS.n6 VSS.t116 2.7305
R626 VSS.n6 VSS.n5 2.7305
R627 VSS.n1 VSS.t20 2.7305
R628 VSS.n1 VSS.n0 2.7305
R629 VSS.n3 VSS.t121 2.7305
R630 VSS.n3 VSS.n2 2.7305
R631 VSS.n69 VSS.n68 2.71197
R632 VSS.n98 VSS.n97 2.6005
R633 VSS.n97 VSS.n96 2.6005
R634 VSS.n84 VSS.n83 0.4901
R635 VSS.n85 VSS.n84 0.4901
R636 VSS.n94 VSS.n93 0.4901
R637 VSS.n93 VSS.n92 0.4901
R638 VSS.n20 VSS.n19 0.4901
R639 VSS.n95 VSS.n85 0.4853
R640 VSS.n100 VSS.n99 0.462387
R641 VSS.n73 VSS.n72 0.462387
R642 VSS.n72 VSS.n71 0.462387
R643 VSS.n71 VSS.n70 0.462387
R644 VSS VSS.n100 0.343519
R645 VSS.n98 VSS.n73 0.235972
R646 VSS.n99 VSS.n98 0.226915
R647 VSS.n53 VSS.n52 0.209136
R648 VSS.n54 VSS.n53 0.209136