* NGSPICE file created from DAC_12_Bit_V3.ext - technology: gf180mcuC

.subckt pmos_3p3_MWBYAR a_108_n268# a_n356_68# a_268_n268# a_268_68# a_n52_68# a_52_24#
+ a_108_68# a_n356_n268# a_52_n312# a_n52_n268# a_212_24# a_n108_n312# a_212_n312#
+ a_n212_68# a_n212_n268# a_n268_24# a_n268_n312# a_n108_24# w_n442_n398#
X0 a_268_68# a_212_24# a_108_68# w_n442_n398# pfet_03v3 ad=0.44p pd=2.88u as=0.26p ps=1.52u w=1u l=0.28u
X1 a_n212_68# a_n268_24# a_n356_68# w_n442_n398# pfet_03v3 ad=0.26p pd=1.52u as=0.44p ps=2.88u w=1u l=0.28u
X2 a_108_n268# a_52_n312# a_n52_n268# w_n442_n398# pfet_03v3 ad=0.26p pd=1.52u as=0.26p ps=1.52u w=1u l=0.28u
X3 a_268_n268# a_212_n312# a_108_n268# w_n442_n398# pfet_03v3 ad=0.44p pd=2.88u as=0.26p ps=1.52u w=1u l=0.28u
X4 a_n52_68# a_n108_24# a_n212_68# w_n442_n398# pfet_03v3 ad=0.26p pd=1.52u as=0.26p ps=1.52u w=1u l=0.28u
X5 a_n212_n268# a_n268_n312# a_n356_n268# w_n442_n398# pfet_03v3 ad=0.26p pd=1.52u as=0.44p ps=2.88u w=1u l=0.28u
X6 a_n52_n268# a_n108_n312# a_n212_n268# w_n442_n398# pfet_03v3 ad=0.26p pd=1.52u as=0.26p ps=1.52u w=1u l=0.28u
X7 a_108_68# a_52_24# a_n52_68# w_n442_n398# pfet_03v3 ad=0.26p pd=1.52u as=0.26p ps=1.52u w=1u l=0.28u
.ends

.subckt nmos_3p3_MEGST2 a_n212_n168# a_n268_n212# a_n356_68# a_268_68# a_n52_68# a_52_24#
+ a_108_68# a_108_n168# a_268_n168# a_212_24# a_n212_68# a_n356_n168# a_n268_24# a_52_n212#
+ a_n52_n168# a_n108_24# a_n108_n212# a_212_n212# VSUBS
X0 a_268_68# a_212_24# a_108_68# VSUBS nfet_03v3 ad=0.22p pd=1.88u as=0.13p ps=1.02u w=0.5u l=0.28u
X1 a_n212_68# a_n268_24# a_n356_68# VSUBS nfet_03v3 ad=0.13p pd=1.02u as=0.22p ps=1.88u w=0.5u l=0.28u
X2 a_n52_68# a_n108_24# a_n212_68# VSUBS nfet_03v3 ad=0.13p pd=1.02u as=0.13p ps=1.02u w=0.5u l=0.28u
X3 a_108_68# a_52_24# a_n52_68# VSUBS nfet_03v3 ad=0.13p pd=1.02u as=0.13p ps=1.02u w=0.5u l=0.28u
X4 a_108_n168# a_52_n212# a_n52_n168# VSUBS nfet_03v3 ad=0.13p pd=1.02u as=0.13p ps=1.02u w=0.5u l=0.28u
X5 a_268_n168# a_212_n212# a_108_n168# VSUBS nfet_03v3 ad=0.22p pd=1.88u as=0.13p ps=1.02u w=0.5u l=0.28u
X6 a_n212_n168# a_n268_n212# a_n356_n168# VSUBS nfet_03v3 ad=0.13p pd=1.02u as=0.22p ps=1.88u w=0.5u l=0.28u
X7 a_n52_n168# a_n108_n212# a_n212_n168# VSUBS nfet_03v3 ad=0.13p pd=1.02u as=0.13p ps=1.02u w=0.5u l=0.28u
.ends

.subckt Inv_16x VDD VSS IN OUT
Xpmos_3p3_MWBYAR_0 OUT VDD VDD VDD VDD IN OUT VDD IN VDD IN IN IN OUT OUT IN IN IN
+ VDD pmos_3p3_MWBYAR
Xnmos_3p3_MEGST2_0 OUT IN VSS VSS VSS IN OUT OUT VSS IN OUT VSS IN IN VSS IN IN IN
+ VSS nmos_3p3_MEGST2
.ends

.subckt Buff_16x IN OUT M VDD VSS
XInv_16x_0 VDD VSS M OUT Inv_16x
XInv_16x_1 VDD VSS IN M Inv_16x
.ends

.subckt nmos_3p3_AGPLV7 a_n138_n60# a_50_n60# a_n50_n104# VSUBS
X0 a_50_n60# a_n50_n104# a_n138_n60# VSUBS nfet_03v3 ad=0.264p pd=2.08u as=0.264p ps=2.08u w=0.6u l=0.5u
.ends

.subckt nmos_3p3_AQEADK a_n138_n60# a_50_n60# a_n50_n104# VSUBS
X0 a_50_n60# a_n50_n104# a_n138_n60# VSUBS nfet_03v3 ad=0.264p pd=2.08u as=0.264p ps=2.08u w=0.6u l=0.5u
.ends

.subckt MSB_Unit_Cell_p2 m1_34_n336# a_316_n480# a_51_258# a_316_26# m1_23_6# a_3095_69#
+ VSUBS
Xnmos_3p3_AGPLV7_5 m1_34_n336# a_3095_69# a_316_26# VSUBS nmos_3p3_AGPLV7
Xnmos_3p3_AGPLV7_6 a_3095_69# m1_23_6# a_316_n480# VSUBS nmos_3p3_AGPLV7
Xnmos_3p3_AGPLV7_7 m1_23_6# a_3095_69# a_316_n480# VSUBS nmos_3p3_AGPLV7
Xnmos_3p3_AGPLV7_8 a_3095_69# m1_34_n336# a_316_26# VSUBS nmos_3p3_AGPLV7
Xnmos_3p3_AGPLV7_9 m1_34_n336# a_3095_69# a_316_26# VSUBS nmos_3p3_AGPLV7
Xnmos_3p3_AQEADK_0 a_3095_69# m1_34_n336# a_316_26# VSUBS nmos_3p3_AQEADK
Xnmos_3p3_AQEADK_1 m1_23_6# a_3095_69# a_51_258# VSUBS nmos_3p3_AQEADK
Xnmos_3p3_AQEADK_2 a_3095_69# m1_34_n336# a_316_26# VSUBS nmos_3p3_AQEADK
Xnmos_3p3_AQEADK_4 a_3095_69# m1_23_6# a_51_258# VSUBS nmos_3p3_AQEADK
Xnmos_3p3_AQEADK_3 m1_34_n336# a_3095_69# a_316_26# VSUBS nmos_3p3_AQEADK
Xnmos_3p3_AQEADK_5 m1_23_6# a_3095_69# a_51_258# VSUBS nmos_3p3_AQEADK
Xnmos_3p3_AQEADK_10 a_3095_69# m1_23_6# a_51_258# VSUBS nmos_3p3_AQEADK
Xnmos_3p3_AQEADK_6 a_3095_69# m1_34_n336# a_316_26# VSUBS nmos_3p3_AQEADK
Xnmos_3p3_AQEADK_11 m1_34_n336# a_3095_69# a_316_26# VSUBS nmos_3p3_AQEADK
Xnmos_3p3_AQEADK_7 m1_34_n336# a_3095_69# a_316_26# VSUBS nmos_3p3_AQEADK
Xnmos_3p3_AQEADK_12 a_3095_69# m1_23_6# a_51_258# VSUBS nmos_3p3_AQEADK
Xnmos_3p3_AQEADK_8 a_3095_69# m1_23_6# a_51_258# VSUBS nmos_3p3_AQEADK
Xnmos_3p3_AQEADK_13 m1_23_6# a_3095_69# a_51_258# VSUBS nmos_3p3_AQEADK
Xnmos_3p3_AQEADK_9 m1_23_6# a_3095_69# a_51_258# VSUBS nmos_3p3_AQEADK
Xnmos_3p3_AQEADK_15 m1_34_n336# a_3095_69# a_316_26# VSUBS nmos_3p3_AQEADK
Xnmos_3p3_AQEADK_14 a_3095_69# m1_34_n336# a_316_26# VSUBS nmos_3p3_AQEADK
Xnmos_3p3_AGPLV7_10 a_3095_69# m1_23_6# a_316_n480# VSUBS nmos_3p3_AGPLV7
Xnmos_3p3_AGPLV7_12 a_3095_69# m1_23_6# a_316_n480# VSUBS nmos_3p3_AGPLV7
Xnmos_3p3_AGPLV7_11 m1_23_6# a_3095_69# a_316_n480# VSUBS nmos_3p3_AGPLV7
Xnmos_3p3_AGPLV7_13 m1_34_n336# a_3095_69# a_316_26# VSUBS nmos_3p3_AGPLV7
Xnmos_3p3_AGPLV7_14 m1_23_6# a_3095_69# a_316_n480# VSUBS nmos_3p3_AGPLV7
Xnmos_3p3_AGPLV7_15 a_3095_69# m1_34_n336# a_316_26# VSUBS nmos_3p3_AGPLV7
Xnmos_3p3_AGPLV7_0 a_3095_69# m1_34_n336# a_316_26# VSUBS nmos_3p3_AGPLV7
Xnmos_3p3_AGPLV7_1 m1_34_n336# a_3095_69# a_316_26# VSUBS nmos_3p3_AGPLV7
Xnmos_3p3_AGPLV7_2 a_3095_69# m1_23_6# a_316_n480# VSUBS nmos_3p3_AGPLV7
Xnmos_3p3_AGPLV7_3 m1_23_6# a_3095_69# a_316_n480# VSUBS nmos_3p3_AGPLV7
Xnmos_3p3_AGPLV7_4 a_3095_69# m1_34_n336# a_316_26# VSUBS nmos_3p3_AGPLV7
.ends

.subckt pmos_3p3_M8RWPS a_n28_n94# w_n202_n180# a_n116_n50# a_28_n50#
X0 a_28_n50# a_n28_n94# a_n116_n50# w_n202_n180# pfet_03v3 ad=0.22p pd=1.88u as=0.22p ps=1.88u w=0.5u l=0.28u
.ends

.subckt nmos_3p3_HZS5UA a_n28_n94# a_n116_n50# a_28_n50# VSUBS
X0 a_28_n50# a_n28_n94# a_n116_n50# VSUBS nfet_03v3 ad=0.22p pd=1.88u as=0.22p ps=1.88u w=0.5u l=0.28u
.ends

.subckt NAND VDD VSS B A OUT SD
Xpmos_3p3_M8RWPS_0 A VDD VDD OUT pmos_3p3_M8RWPS
Xpmos_3p3_M8RWPS_1 B VDD VDD OUT pmos_3p3_M8RWPS
Xnmos_3p3_HZS5UA_0 A SD OUT VSS nmos_3p3_HZS5UA
Xnmos_3p3_HZS5UA_1 B VSS SD VSS nmos_3p3_HZS5UA
.ends

.subckt Local_Enc Q QB Ci Ri Ri-1 VDD VSS
XNAND_0 VDD VSS Ri-1 Ri-1 NAND_1/B NAND_0/SD NAND
XNAND_1 VDD VSS NAND_1/B NAND_1/B NAND_5/B NAND_1/SD NAND
XNAND_2 VDD VSS Ci Ci NAND_6/B NAND_2/SD NAND
XNAND_3 VDD VSS Ri Ri NAND_6/A NAND_3/SD NAND
XNAND_4 VDD VSS NAND_4/B Q QB NAND_4/SD NAND
XNAND_5 VDD VSS NAND_5/B NAND_5/A NAND_8/A NAND_5/SD NAND
XNAND_6 VDD VSS NAND_6/B NAND_6/A NAND_5/A NAND_6/SD NAND
XNAND_7 VDD VSS NAND_8/A NAND_8/A NAND_4/B NAND_7/SD NAND
XNAND_8 VDD VSS QB NAND_8/A Q NAND_8/SD NAND
.ends

.subckt nmos_3p3_LNPLVM a_2192_n120# a_3112_n164# a_n2296_n120# a_2092_n164# a_n968_n164#
+ a_1172_n120# a_n256_n120# a_n1988_n164# a_n1276_n120# a_1072_n164# a_1988_n120#
+ a_2908_n164# a_1888_n164# a_n460_n120# a_n2500_n120# a_n1480_n120# a_764_n120# a_664_n164#
+ a_n2092_n120# a_n3112_n120# a_n764_n164# a_n2804_n164# a_n1784_n164# a_n52_n120#
+ a_n1072_n120# a_2804_n120# a_1784_n120# a_356_n120# a_n868_n120# a_n2908_n120# a_2704_n164#
+ a_1684_n164# a_n1888_n120# a_256_n164# a_n2396_n164# a_n356_n164# a_560_n120# a_n1376_n164#
+ a_2396_n120# a_460_n164# a_2296_n164# a_1376_n120# a_n560_n164# a_1276_n164# a_n1580_n164#
+ a_n2600_n164# a_n3008_n164# a_2600_n120# a_1580_n120# a_3008_n120# a_152_n120# a_n664_n120#
+ a_n2704_n120# a_2500_n164# a_1480_n164# a_n1684_n120# a_968_n120# a_52_n164# a_n2192_n164#
+ a_n3212_n164# a_868_n164# a_n152_n164# a_3212_n120# a_n3300_n120# a_n1172_n164#
+ VSUBS
X0 a_n460_n120# a_n560_n164# a_n664_n120# VSUBS nfet_03v3 ad=0.312p pd=1.72u as=0.312p ps=1.72u w=1.2u l=0.5u
X1 a_n52_n120# a_n152_n164# a_n256_n120# VSUBS nfet_03v3 ad=0.312p pd=1.72u as=0.312p ps=1.72u w=1.2u l=0.5u
X2 a_n1480_n120# a_n1580_n164# a_n1684_n120# VSUBS nfet_03v3 ad=0.312p pd=1.72u as=0.312p ps=1.72u w=1.2u l=0.5u
X3 a_n1072_n120# a_n1172_n164# a_n1276_n120# VSUBS nfet_03v3 ad=0.312p pd=1.72u as=0.312p ps=1.72u w=1.2u l=0.5u
X4 a_1172_n120# a_1072_n164# a_968_n120# VSUBS nfet_03v3 ad=0.312p pd=1.72u as=0.312p ps=1.72u w=1.2u l=0.5u
X5 a_n868_n120# a_n968_n164# a_n1072_n120# VSUBS nfet_03v3 ad=0.312p pd=1.72u as=0.312p ps=1.72u w=1.2u l=0.5u
X6 a_n1888_n120# a_n1988_n164# a_n2092_n120# VSUBS nfet_03v3 ad=0.312p pd=1.72u as=0.312p ps=1.72u w=1.2u l=0.5u
X7 a_1988_n120# a_1888_n164# a_1784_n120# VSUBS nfet_03v3 ad=0.312p pd=1.72u as=0.312p ps=1.72u w=1.2u l=0.5u
X8 a_1580_n120# a_1480_n164# a_1376_n120# VSUBS nfet_03v3 ad=0.312p pd=1.72u as=0.312p ps=1.72u w=1.2u l=0.5u
X9 a_968_n120# a_868_n164# a_764_n120# VSUBS nfet_03v3 ad=0.312p pd=1.72u as=0.312p ps=1.72u w=1.2u l=0.5u
X10 a_3008_n120# a_2908_n164# a_2804_n120# VSUBS nfet_03v3 ad=0.312p pd=1.72u as=0.312p ps=1.72u w=1.2u l=0.5u
X11 a_n2500_n120# a_n2600_n164# a_n2704_n120# VSUBS nfet_03v3 ad=0.312p pd=1.72u as=0.312p ps=1.72u w=1.2u l=0.5u
X12 a_n2092_n120# a_n2192_n164# a_n2296_n120# VSUBS nfet_03v3 ad=0.312p pd=1.72u as=0.312p ps=1.72u w=1.2u l=0.5u
X13 a_560_n120# a_460_n164# a_356_n120# VSUBS nfet_03v3 ad=0.312p pd=1.72u as=0.312p ps=1.72u w=1.2u l=0.5u
X14 a_2192_n120# a_2092_n164# a_1988_n120# VSUBS nfet_03v3 ad=0.312p pd=1.72u as=0.312p ps=1.72u w=1.2u l=0.5u
X15 a_2600_n120# a_2500_n164# a_2396_n120# VSUBS nfet_03v3 ad=0.312p pd=1.72u as=0.312p ps=1.72u w=1.2u l=0.5u
X16 a_n3112_n120# a_n3212_n164# a_n3300_n120# VSUBS nfet_03v3 ad=0.312p pd=1.72u as=0.528p ps=3.28u w=1.2u l=0.5u
X17 a_3212_n120# a_3112_n164# a_3008_n120# VSUBS nfet_03v3 ad=0.528p pd=3.28u as=0.312p ps=1.72u w=1.2u l=0.5u
X18 a_n256_n120# a_n356_n164# a_n460_n120# VSUBS nfet_03v3 ad=0.312p pd=1.72u as=0.312p ps=1.72u w=1.2u l=0.5u
X19 a_n1276_n120# a_n1376_n164# a_n1480_n120# VSUBS nfet_03v3 ad=0.312p pd=1.72u as=0.312p ps=1.72u w=1.2u l=0.5u
X20 a_1376_n120# a_1276_n164# a_1172_n120# VSUBS nfet_03v3 ad=0.312p pd=1.72u as=0.312p ps=1.72u w=1.2u l=0.5u
X21 a_356_n120# a_256_n164# a_152_n120# VSUBS nfet_03v3 ad=0.312p pd=1.72u as=0.312p ps=1.72u w=1.2u l=0.5u
X22 a_n2908_n120# a_n3008_n164# a_n3112_n120# VSUBS nfet_03v3 ad=0.312p pd=1.72u as=0.312p ps=1.72u w=1.2u l=0.5u
X23 a_n664_n120# a_n764_n164# a_n868_n120# VSUBS nfet_03v3 ad=0.312p pd=1.72u as=0.312p ps=1.72u w=1.2u l=0.5u
X24 a_152_n120# a_52_n164# a_n52_n120# VSUBS nfet_03v3 ad=0.312p pd=1.72u as=0.312p ps=1.72u w=1.2u l=0.5u
X25 a_n1684_n120# a_n1784_n164# a_n1888_n120# VSUBS nfet_03v3 ad=0.312p pd=1.72u as=0.312p ps=1.72u w=1.2u l=0.5u
X26 a_1784_n120# a_1684_n164# a_1580_n120# VSUBS nfet_03v3 ad=0.312p pd=1.72u as=0.312p ps=1.72u w=1.2u l=0.5u
X27 a_764_n120# a_664_n164# a_560_n120# VSUBS nfet_03v3 ad=0.312p pd=1.72u as=0.312p ps=1.72u w=1.2u l=0.5u
X28 a_2804_n120# a_2704_n164# a_2600_n120# VSUBS nfet_03v3 ad=0.312p pd=1.72u as=0.312p ps=1.72u w=1.2u l=0.5u
X29 a_n2704_n120# a_n2804_n164# a_n2908_n120# VSUBS nfet_03v3 ad=0.312p pd=1.72u as=0.312p ps=1.72u w=1.2u l=0.5u
X30 a_n2296_n120# a_n2396_n164# a_n2500_n120# VSUBS nfet_03v3 ad=0.312p pd=1.72u as=0.312p ps=1.72u w=1.2u l=0.5u
X31 a_2396_n120# a_2296_n164# a_2192_n120# VSUBS nfet_03v3 ad=0.312p pd=1.72u as=0.312p ps=1.72u w=1.2u l=0.5u
.ends

.subckt CM_MSB_V2 IM_T VSS OUT IM SD
Xnmos_3p3_LNPLVM_0 SD IM_T SD IM IM_T VSS SD IM VSS IM VSS IM IM VSS OUT SD OUT IM_T
+ VSS SD IM_T IM IM_T OUT SD VSS SD VSS OUT VSS IM IM_T SD IM IM_T IM SD IM OUT IM
+ IM_T SD IM IM IM_T IM_T IM SD OUT SD SD SD SD IM_T IM_T OUT SD IM_T IM IM_T IM_T
+ IM_T OUT OUT IM VSS nmos_3p3_LNPLVM
Xnmos_3p3_LNPLVM_1 SD IM SD IM_T IM OUT SD IM_T OUT IM_T OUT IM_T IM_T OUT VSS SD
+ VSS IM OUT SD IM IM_T IM VSS SD OUT SD OUT VSS OUT IM_T IM SD IM_T IM IM_T SD IM_T
+ VSS IM_T IM SD IM_T IM_T IM IM IM_T SD VSS SD SD SD SD IM IM VSS SD IM IM_T IM IM
+ IM VSS VSS IM_T VSS nmos_3p3_LNPLVM
.ends

.subckt MSB_Unit_Cell IM Ri Ci Q OUT+ OUT- Ri-1 SD QB IM_T OUT VDD VSS
XMSB_Unit_Cell_p2_3 OUT- Q Q QB OUT+ OUT VSS MSB_Unit_Cell_p2
XLocal_Enc_0 Q QB Ci Ri Ri-1 VDD VSS Local_Enc
XCM_MSB_V2_0 IM_T VSS OUT IM SD CM_MSB_V2
XMSB_Unit_Cell_p2_0 OUT- Q Q QB OUT+ OUT VSS MSB_Unit_Cell_p2
XMSB_Unit_Cell_p2_1 OUT- Q Q QB OUT+ OUT VSS MSB_Unit_Cell_p2
XMSB_Unit_Cell_p2_2 OUT- Q Q QB OUT+ OUT VSS MSB_Unit_Cell_p2
.ends

.subckt nmos_3p3_BZS5U2 a_56_n162# a_n204_n129# a_112_n118# a_n56_n118# a_n112_24#
+ a_n204_57# a_56_24# a_n56_68# a_n112_n162# a_112_68# VSUBS
X0 a_112_n118# a_56_n162# a_n56_n118# VSUBS nfet_03v3 ad=0.155p pd=1.64u as=89.8f ps=0.92u w=0.25u l=0.28u
X1 a_112_68# a_56_24# a_n56_68# VSUBS nfet_03v3 ad=0.155p pd=1.64u as=89.8f ps=0.92u w=0.25u l=0.28u
X2 a_n56_n118# a_n112_n162# a_n204_n129# VSUBS nfet_03v3 ad=89.8f pd=0.92u as=0.155p ps=1.64u w=0.25u l=0.28u
X3 a_n56_68# a_n112_24# a_n204_57# VSUBS nfet_03v3 ad=89.8f pd=0.92u as=0.155p ps=1.64u w=0.25u l=0.28u
.ends

.subckt pmos_3p3_MNXALR w_n282_n298# a_n52_68# a_52_24# a_108_68# a_n196_68# a_108_n168#
+ a_n196_n168# a_52_n212# a_n52_n168# a_n108_24# a_n108_n212#
X0 a_n52_68# a_n108_24# a_n196_68# w_n282_n298# pfet_03v3 ad=0.13p pd=1.02u as=0.22p ps=1.88u w=0.5u l=0.28u
X1 a_108_68# a_52_24# a_n52_68# w_n282_n298# pfet_03v3 ad=0.22p pd=1.88u as=0.13p ps=1.02u w=0.5u l=0.28u
X2 a_108_n168# a_52_n212# a_n52_n168# w_n282_n298# pfet_03v3 ad=0.22p pd=1.88u as=0.13p ps=1.02u w=0.5u l=0.28u
X3 a_n52_n168# a_n108_n212# a_n196_n168# w_n282_n298# pfet_03v3 ad=0.13p pd=1.02u as=0.22p ps=1.88u w=0.5u l=0.28u
.ends

.subckt Inv_4x OUT IN VDD VSS
Xnmos_3p3_BZS5U2_0 IN VSS VSS OUT IN VSS IN OUT IN VSS VSS nmos_3p3_BZS5U2
Xpmos_3p3_MNXALR_0 VDD OUT IN VDD VDD VDD VDD IN OUT IN IN pmos_3p3_MNXALR
.ends

.subckt Buff_4x OUT IN M VDD VSS
XInv_4x_0 OUT M VDD VSS Inv_4x
XInv_4x_1 M IN VDD VSS Inv_4x
.ends

.subckt nmos_3p3_H9QVWA a_n120_n36# a_28_n25# a_n28_n69# VSUBS
X0 a_28_n25# a_n28_n69# a_n120_n36# VSUBS nfet_03v3 ad=0.155p pd=1.64u as=0.155p ps=1.64u w=0.25u l=0.28u
.ends

.subckt Inverter VDD VSS IN OUT
Xnmos_3p3_H9QVWA_0 VSS OUT IN VSS nmos_3p3_H9QVWA
Xpmos_3p3_M8RWPS_0 IN VDD VDD OUT pmos_3p3_M8RWPS
.ends

.subckt INV_BUFF IN SD1 OUT VDD VSS
XInverter_0 VDD VSS SD1 OUT Inverter
XInverter_1 VDD VSS IN SD1 Inverter
.ends

.subckt nmos_3p3_9NPLV7 a_3008_n60# a_764_n60# a_n664_n60# a_2192_n60# a_n2092_n60#
+ a_664_n104# a_2804_n60# a_n2704_n60# a_560_n60# a_n460_n60# a_n764_n104# a_n2804_n104#
+ a_1988_n60# a_n1888_n60# a_n1784_n104# a_2600_n60# a_n2500_n60# a_2704_n104# a_1684_n104#
+ a_256_n104# a_1784_n60# a_n256_n60# a_n1684_n60# a_356_n60# a_n2396_n104# a_n356_n104#
+ a_460_n104# a_n1376_n104# a_1580_n60# a_n1480_n60# a_2296_n104# a_152_n60# a_1276_n104#
+ a_n560_n104# a_n2600_n104# a_n1580_n104# a_n3008_n104# a_n52_n60# a_2500_n104# a_1376_n60#
+ a_n1276_n60# a_1480_n104# a_n3212_n104# a_52_n104# a_n2192_n104# a_868_n104# a_n152_n104#
+ a_1172_n60# a_n1072_n60# a_n1172_n104# a_3112_n104# a_2092_n104# a_n968_n104# a_n1988_n104#
+ a_3212_n60# a_n3112_n60# a_n3300_n60# a_1072_n104# a_968_n60# a_n868_n60# a_2908_n104#
+ a_2396_n60# a_n2296_n60# a_1888_n104# a_n2908_n60# VSUBS
X0 a_n2908_n60# a_n3008_n104# a_n3112_n60# VSUBS nfet_03v3 ad=0.156p pd=1.12u as=0.156p ps=1.12u w=0.6u l=0.5u
X1 a_n256_n60# a_n356_n104# a_n460_n60# VSUBS nfet_03v3 ad=0.156p pd=1.12u as=0.156p ps=1.12u w=0.6u l=0.5u
X2 a_1376_n60# a_1276_n104# a_1172_n60# VSUBS nfet_03v3 ad=0.156p pd=1.12u as=0.156p ps=1.12u w=0.6u l=0.5u
X3 a_n3112_n60# a_n3212_n104# a_n3300_n60# VSUBS nfet_03v3 ad=0.156p pd=1.12u as=0.264p ps=2.08u w=0.6u l=0.5u
X4 a_1580_n60# a_1480_n104# a_1376_n60# VSUBS nfet_03v3 ad=0.156p pd=1.12u as=0.156p ps=1.12u w=0.6u l=0.5u
X5 a_n2704_n60# a_n2804_n104# a_n2908_n60# VSUBS nfet_03v3 ad=0.156p pd=1.12u as=0.156p ps=1.12u w=0.6u l=0.5u
X6 a_n460_n60# a_n560_n104# a_n664_n60# VSUBS nfet_03v3 ad=0.156p pd=1.12u as=0.156p ps=1.12u w=0.6u l=0.5u
X7 a_2192_n60# a_2092_n104# a_1988_n60# VSUBS nfet_03v3 ad=0.156p pd=1.12u as=0.156p ps=1.12u w=0.6u l=0.5u
X8 a_n664_n60# a_n764_n104# a_n868_n60# VSUBS nfet_03v3 ad=0.156p pd=1.12u as=0.156p ps=1.12u w=0.6u l=0.5u
X9 a_1784_n60# a_1684_n104# a_1580_n60# VSUBS nfet_03v3 ad=0.156p pd=1.12u as=0.156p ps=1.12u w=0.6u l=0.5u
X10 a_2396_n60# a_2296_n104# a_2192_n60# VSUBS nfet_03v3 ad=0.156p pd=1.12u as=0.156p ps=1.12u w=0.6u l=0.5u
X11 a_n1072_n60# a_n1172_n104# a_n1276_n60# VSUBS nfet_03v3 ad=0.156p pd=1.12u as=0.156p ps=1.12u w=0.6u l=0.5u
X12 a_n868_n60# a_n968_n104# a_n1072_n60# VSUBS nfet_03v3 ad=0.156p pd=1.12u as=0.156p ps=1.12u w=0.6u l=0.5u
X13 a_1988_n60# a_1888_n104# a_1784_n60# VSUBS nfet_03v3 ad=0.156p pd=1.12u as=0.156p ps=1.12u w=0.6u l=0.5u
X14 a_356_n60# a_256_n104# a_152_n60# VSUBS nfet_03v3 ad=0.156p pd=1.12u as=0.156p ps=1.12u w=0.6u l=0.5u
X15 a_n1276_n60# a_n1376_n104# a_n1480_n60# VSUBS nfet_03v3 ad=0.156p pd=1.12u as=0.156p ps=1.12u w=0.6u l=0.5u
X16 a_560_n60# a_460_n104# a_356_n60# VSUBS nfet_03v3 ad=0.156p pd=1.12u as=0.156p ps=1.12u w=0.6u l=0.5u
X17 a_n1480_n60# a_n1580_n104# a_n1684_n60# VSUBS nfet_03v3 ad=0.156p pd=1.12u as=0.156p ps=1.12u w=0.6u l=0.5u
X18 a_n2092_n60# a_n2192_n104# a_n2296_n60# VSUBS nfet_03v3 ad=0.156p pd=1.12u as=0.156p ps=1.12u w=0.6u l=0.5u
X19 a_2600_n60# a_2500_n104# a_2396_n60# VSUBS nfet_03v3 ad=0.156p pd=1.12u as=0.156p ps=1.12u w=0.6u l=0.5u
X20 a_764_n60# a_664_n104# a_560_n60# VSUBS nfet_03v3 ad=0.156p pd=1.12u as=0.156p ps=1.12u w=0.6u l=0.5u
X21 a_n1684_n60# a_n1784_n104# a_n1888_n60# VSUBS nfet_03v3 ad=0.156p pd=1.12u as=0.156p ps=1.12u w=0.6u l=0.5u
X22 a_3212_n60# a_3112_n104# a_3008_n60# VSUBS nfet_03v3 ad=0.264p pd=2.08u as=0.156p ps=1.12u w=0.6u l=0.5u
X23 a_152_n60# a_52_n104# a_n52_n60# VSUBS nfet_03v3 ad=0.156p pd=1.12u as=0.156p ps=1.12u w=0.6u l=0.5u
X24 a_n2296_n60# a_n2396_n104# a_n2500_n60# VSUBS nfet_03v3 ad=0.156p pd=1.12u as=0.156p ps=1.12u w=0.6u l=0.5u
X25 a_2804_n60# a_2704_n104# a_2600_n60# VSUBS nfet_03v3 ad=0.156p pd=1.12u as=0.156p ps=1.12u w=0.6u l=0.5u
X26 a_n1888_n60# a_n1988_n104# a_n2092_n60# VSUBS nfet_03v3 ad=0.156p pd=1.12u as=0.156p ps=1.12u w=0.6u l=0.5u
X27 a_968_n60# a_868_n104# a_764_n60# VSUBS nfet_03v3 ad=0.156p pd=1.12u as=0.156p ps=1.12u w=0.6u l=0.5u
X28 a_n2500_n60# a_n2600_n104# a_n2704_n60# VSUBS nfet_03v3 ad=0.156p pd=1.12u as=0.156p ps=1.12u w=0.6u l=0.5u
X29 a_3008_n60# a_2908_n104# a_2804_n60# VSUBS nfet_03v3 ad=0.156p pd=1.12u as=0.156p ps=1.12u w=0.6u l=0.5u
X30 a_n52_n60# a_n152_n104# a_n256_n60# VSUBS nfet_03v3 ad=0.156p pd=1.12u as=0.156p ps=1.12u w=0.6u l=0.5u
X31 a_1172_n60# a_1072_n104# a_968_n60# VSUBS nfet_03v3 ad=0.156p pd=1.12u as=0.156p ps=1.12u w=0.6u l=0.5u
.ends

.subckt pmos_3p3_DVR9E7 a_3008_n60# a_764_n60# a_n664_n60# a_2192_n60# a_n2092_n60#
+ a_664_n104# w_n3386_n190# a_2804_n60# a_n2704_n60# a_560_n60# a_n460_n60# a_n764_n104#
+ a_n2804_n104# a_1988_n60# a_n1888_n60# a_n1784_n104# a_2600_n60# a_n2500_n60# a_2704_n104#
+ a_1684_n104# a_256_n104# a_1784_n60# a_n256_n60# a_n1684_n60# a_356_n60# a_n2396_n104#
+ a_n356_n104# a_460_n104# a_n1376_n104# a_1580_n60# a_n1480_n60# a_2296_n104# a_152_n60#
+ a_1276_n104# a_n560_n104# a_n2600_n104# a_n1580_n104# a_n3008_n104# a_n52_n60# a_2500_n104#
+ a_1376_n60# a_n1276_n60# a_1480_n104# a_n3212_n104# a_52_n104# a_n2192_n104# a_868_n104#
+ a_n152_n104# a_1172_n60# a_n1072_n60# a_n1172_n104# a_3112_n104# a_2092_n104# a_n968_n104#
+ a_n1988_n104# a_3212_n60# a_n3112_n60# a_n3300_n60# a_1072_n104# a_968_n60# a_n868_n60#
+ a_2908_n104# a_2396_n60# a_n2296_n60# a_1888_n104# a_n2908_n60#
X0 a_n2908_n60# a_n3008_n104# a_n3112_n60# w_n3386_n190# pfet_03v3 ad=0.156p pd=1.12u as=0.156p ps=1.12u w=0.6u l=0.5u
X1 a_n256_n60# a_n356_n104# a_n460_n60# w_n3386_n190# pfet_03v3 ad=0.156p pd=1.12u as=0.156p ps=1.12u w=0.6u l=0.5u
X2 a_1376_n60# a_1276_n104# a_1172_n60# w_n3386_n190# pfet_03v3 ad=0.156p pd=1.12u as=0.156p ps=1.12u w=0.6u l=0.5u
X3 a_n3112_n60# a_n3212_n104# a_n3300_n60# w_n3386_n190# pfet_03v3 ad=0.156p pd=1.12u as=0.264p ps=2.08u w=0.6u l=0.5u
X4 a_1580_n60# a_1480_n104# a_1376_n60# w_n3386_n190# pfet_03v3 ad=0.156p pd=1.12u as=0.156p ps=1.12u w=0.6u l=0.5u
X5 a_n2704_n60# a_n2804_n104# a_n2908_n60# w_n3386_n190# pfet_03v3 ad=0.156p pd=1.12u as=0.156p ps=1.12u w=0.6u l=0.5u
X6 a_n460_n60# a_n560_n104# a_n664_n60# w_n3386_n190# pfet_03v3 ad=0.156p pd=1.12u as=0.156p ps=1.12u w=0.6u l=0.5u
X7 a_2192_n60# a_2092_n104# a_1988_n60# w_n3386_n190# pfet_03v3 ad=0.156p pd=1.12u as=0.156p ps=1.12u w=0.6u l=0.5u
X8 a_n664_n60# a_n764_n104# a_n868_n60# w_n3386_n190# pfet_03v3 ad=0.156p pd=1.12u as=0.156p ps=1.12u w=0.6u l=0.5u
X9 a_1784_n60# a_1684_n104# a_1580_n60# w_n3386_n190# pfet_03v3 ad=0.156p pd=1.12u as=0.156p ps=1.12u w=0.6u l=0.5u
X10 a_2396_n60# a_2296_n104# a_2192_n60# w_n3386_n190# pfet_03v3 ad=0.156p pd=1.12u as=0.156p ps=1.12u w=0.6u l=0.5u
X11 a_n1072_n60# a_n1172_n104# a_n1276_n60# w_n3386_n190# pfet_03v3 ad=0.156p pd=1.12u as=0.156p ps=1.12u w=0.6u l=0.5u
X12 a_n868_n60# a_n968_n104# a_n1072_n60# w_n3386_n190# pfet_03v3 ad=0.156p pd=1.12u as=0.156p ps=1.12u w=0.6u l=0.5u
X13 a_1988_n60# a_1888_n104# a_1784_n60# w_n3386_n190# pfet_03v3 ad=0.156p pd=1.12u as=0.156p ps=1.12u w=0.6u l=0.5u
X14 a_356_n60# a_256_n104# a_152_n60# w_n3386_n190# pfet_03v3 ad=0.156p pd=1.12u as=0.156p ps=1.12u w=0.6u l=0.5u
X15 a_n1276_n60# a_n1376_n104# a_n1480_n60# w_n3386_n190# pfet_03v3 ad=0.156p pd=1.12u as=0.156p ps=1.12u w=0.6u l=0.5u
X16 a_560_n60# a_460_n104# a_356_n60# w_n3386_n190# pfet_03v3 ad=0.156p pd=1.12u as=0.156p ps=1.12u w=0.6u l=0.5u
X17 a_n1480_n60# a_n1580_n104# a_n1684_n60# w_n3386_n190# pfet_03v3 ad=0.156p pd=1.12u as=0.156p ps=1.12u w=0.6u l=0.5u
X18 a_n2092_n60# a_n2192_n104# a_n2296_n60# w_n3386_n190# pfet_03v3 ad=0.156p pd=1.12u as=0.156p ps=1.12u w=0.6u l=0.5u
X19 a_2600_n60# a_2500_n104# a_2396_n60# w_n3386_n190# pfet_03v3 ad=0.156p pd=1.12u as=0.156p ps=1.12u w=0.6u l=0.5u
X20 a_764_n60# a_664_n104# a_560_n60# w_n3386_n190# pfet_03v3 ad=0.156p pd=1.12u as=0.156p ps=1.12u w=0.6u l=0.5u
X21 a_n1684_n60# a_n1784_n104# a_n1888_n60# w_n3386_n190# pfet_03v3 ad=0.156p pd=1.12u as=0.156p ps=1.12u w=0.6u l=0.5u
X22 a_3212_n60# a_3112_n104# a_3008_n60# w_n3386_n190# pfet_03v3 ad=0.264p pd=2.08u as=0.156p ps=1.12u w=0.6u l=0.5u
X23 a_n2296_n60# a_n2396_n104# a_n2500_n60# w_n3386_n190# pfet_03v3 ad=0.156p pd=1.12u as=0.156p ps=1.12u w=0.6u l=0.5u
X24 a_152_n60# a_52_n104# a_n52_n60# w_n3386_n190# pfet_03v3 ad=0.156p pd=1.12u as=0.156p ps=1.12u w=0.6u l=0.5u
X25 a_2804_n60# a_2704_n104# a_2600_n60# w_n3386_n190# pfet_03v3 ad=0.156p pd=1.12u as=0.156p ps=1.12u w=0.6u l=0.5u
X26 a_n1888_n60# a_n1988_n104# a_n2092_n60# w_n3386_n190# pfet_03v3 ad=0.156p pd=1.12u as=0.156p ps=1.12u w=0.6u l=0.5u
X27 a_968_n60# a_868_n104# a_764_n60# w_n3386_n190# pfet_03v3 ad=0.156p pd=1.12u as=0.156p ps=1.12u w=0.6u l=0.5u
X28 a_n2500_n60# a_n2600_n104# a_n2704_n60# w_n3386_n190# pfet_03v3 ad=0.156p pd=1.12u as=0.156p ps=1.12u w=0.6u l=0.5u
X29 a_3008_n60# a_2908_n104# a_2804_n60# w_n3386_n190# pfet_03v3 ad=0.156p pd=1.12u as=0.156p ps=1.12u w=0.6u l=0.5u
X30 a_n52_n60# a_n152_n104# a_n256_n60# w_n3386_n190# pfet_03v3 ad=0.156p pd=1.12u as=0.156p ps=1.12u w=0.6u l=0.5u
X31 a_1172_n60# a_1072_n104# a_968_n60# w_n3386_n190# pfet_03v3 ad=0.156p pd=1.12u as=0.156p ps=1.12u w=0.6u l=0.5u
.ends

.subckt CM_32_C SD0_1 G1_2 G1_1 SD2_0 G0_1 G0_2 VSS VDD G3_1 G3_2
Xnmos_3p3_9NPLV7_0 G3_1 G3_2 G3_1 G3_1 VSS G3_2 VSS G3_1 G3_1 VSS G3_2 G3_1 VSS G3_1
+ G3_2 G3_1 G3_2 G3_1 G3_2 G3_1 G3_1 G3_1 G3_2 VSS G3_2 G3_1 G3_1 G3_1 G3_2 G3_1 G3_2
+ G3_1 G3_1 G3_1 G3_2 G3_2 G3_1 G3_2 G3_2 G3_1 VSS G3_2 G3_2 G3_2 G3_1 G3_2 G3_2 VSS
+ G3_1 G3_1 G3_2 G3_1 G3_2 G3_1 G3_2 G3_1 G3_2 G3_1 G3_1 G3_2 G3_1 G3_2 G3_1 G3_1
+ VSS VSS nmos_3p3_9NPLV7
Xnmos_3p3_9NPLV7_1 SD0_1 VSS SD0_1 SD0_1 G1_1 G0_1 G1_1 SD0_1 SD0_1 G1_1 G0_1 G0_2
+ G1_1 SD0_1 G0_1 SD0_1 VSS G0_2 G0_1 G0_2 SD0_1 SD0_1 VSS G1_1 G0_1 G0_2 G0_2 G0_2
+ VSS SD0_1 G0_1 SD0_1 G0_2 G0_2 G0_1 G0_1 G0_2 VSS G0_1 SD0_1 G1_1 G0_1 G0_1 G0_1
+ G0_2 G0_1 G0_1 G1_1 SD0_1 G0_2 G0_1 G0_2 G0_1 G0_2 VSS SD0_1 VSS G0_2 SD0_1 VSS
+ G0_2 VSS SD0_1 G0_2 G1_1 VSS nmos_3p3_9NPLV7
Xnmos_3p3_9NPLV7_2 SD0_1 G1_1 SD0_1 SD0_1 VSS G0_2 VSS SD0_1 SD0_1 VSS G0_2 G0_1 VSS
+ SD0_1 G0_2 SD0_1 G1_1 G0_1 G0_2 G0_1 SD0_1 SD0_1 G1_1 VSS G0_2 G0_1 G0_1 G0_1 G1_1
+ SD0_1 G0_2 SD0_1 G0_1 G0_1 G0_2 G0_2 G0_1 G1_1 G0_2 SD0_1 VSS G0_2 G0_2 G0_2 G0_1
+ G0_2 G0_2 VSS SD0_1 G0_1 G0_2 G0_1 G0_2 G0_1 G1_1 SD0_1 G1_1 G0_1 SD0_1 G1_1 G0_1
+ G1_1 SD0_1 G0_1 VSS VSS nmos_3p3_9NPLV7
Xnmos_3p3_9NPLV7_3 G3_1 VSS G3_1 G3_1 G3_2 G3_1 G3_2 G3_1 G3_1 G3_2 G3_1 G3_2 G3_2
+ G3_1 G3_1 G3_1 VSS G3_2 G3_1 G3_2 G3_1 G3_1 VSS G3_2 G3_1 G3_2 G3_2 G3_2 VSS G3_1
+ G3_1 G3_1 G3_2 G3_2 G3_1 G3_1 G3_2 VSS G3_1 G3_1 G3_2 G3_1 G3_1 G3_1 G3_2 G3_1 G3_1
+ G3_2 G3_1 G3_2 G3_1 G3_2 G3_1 G3_2 VSS G3_1 VSS G3_2 G3_1 VSS G3_2 VSS G3_1 G3_2
+ G3_2 VSS nmos_3p3_9NPLV7
Xpmos_3p3_DVR9E7_0 G1_2 VDD G1_2 G1_2 G1_1 G1_2 VDD G1_1 G1_2 G1_2 G1_1 G1_2 G1_1
+ G1_1 G1_2 G1_2 G1_2 VDD G1_1 G1_2 G1_1 G1_2 G1_2 VDD G1_1 G1_2 G1_1 G1_1 G1_1 VDD
+ G1_2 G1_2 G1_2 G1_1 G1_1 G1_2 G1_2 G1_1 VDD G1_2 G1_2 G1_1 G1_2 G1_2 G1_2 G1_1 G1_2
+ G1_2 G1_1 G1_2 G1_1 G1_2 G1_1 G1_2 G1_1 VDD G1_2 VDD G1_1 G1_2 VDD G1_1 VDD G1_2
+ G1_1 G1_1 pmos_3p3_DVR9E7
Xpmos_3p3_DVR9E7_1 SD2_0 VDD SD2_0 SD2_0 G3_2 G1_2 VDD G3_2 SD2_0 SD2_0 G3_2 G1_2
+ G1_1 G3_2 SD2_0 G1_2 SD2_0 VDD G1_1 G1_2 G1_1 SD2_0 SD2_0 VDD G3_2 G1_2 G1_1 G1_1
+ G1_1 VDD SD2_0 G1_2 SD2_0 G1_1 G1_1 G1_2 G1_2 G1_1 VDD G1_2 SD2_0 G3_2 G1_2 G1_2
+ G1_2 G1_1 G1_2 G1_2 G3_2 SD2_0 G1_1 G1_2 G1_1 G1_2 G1_1 VDD SD2_0 VDD G1_1 SD2_0
+ VDD G1_1 VDD SD2_0 G1_1 G3_2 pmos_3p3_DVR9E7
Xpmos_3p3_DVR9E7_2 G1_2 G1_1 G1_2 G1_2 VDD G1_1 VDD VDD G1_2 G1_2 VDD G1_1 G1_2 VDD
+ G1_2 G1_1 G1_2 G1_1 G1_2 G1_1 G1_2 G1_2 G1_2 G1_1 VDD G1_1 G1_2 G1_2 G1_2 G1_1 G1_2
+ G1_1 G1_2 G1_2 G1_2 G1_1 G1_1 G1_2 G1_1 G1_1 G1_2 VDD G1_1 G1_1 G1_1 G1_2 G1_1 G1_1
+ VDD G1_2 G1_2 G1_1 G1_2 G1_1 G1_2 G1_1 G1_2 G1_1 G1_2 G1_2 G1_1 G1_2 G1_1 G1_2 G1_2
+ VDD pmos_3p3_DVR9E7
Xpmos_3p3_DVR9E7_3 SD2_0 G3_2 SD2_0 SD2_0 VDD G1_1 VDD VDD SD2_0 SD2_0 VDD G1_1 G1_2
+ VDD SD2_0 G1_1 SD2_0 G3_2 G1_2 G1_1 G1_2 SD2_0 SD2_0 G3_2 VDD G1_1 G1_2 G1_2 G1_2
+ G3_2 SD2_0 G1_1 SD2_0 G1_2 G1_2 G1_1 G1_1 G1_2 G3_2 G1_1 SD2_0 VDD G1_1 G1_1 G1_1
+ G1_2 G1_1 G1_1 VDD SD2_0 G1_2 G1_1 G1_2 G1_1 G1_2 G3_2 SD2_0 G3_2 G1_2 SD2_0 G3_2
+ G1_2 G3_2 SD2_0 G1_2 VDD pmos_3p3_DVR9E7
.ends

.subckt pmos_3p3_DVJ9E7 a_764_n60# a_n664_n60# a_664_n104# a_560_n60# a_n460_n60#
+ a_n764_n104# a_256_n104# a_n256_n60# a_356_n60# a_n356_n104# a_460_n104# a_n1376_n104#
+ a_1580_n60# a_n1480_n60# a_152_n60# a_n1668_n60# a_1276_n104# a_n560_n104# a_n1580_n104#
+ a_n52_n60# a_1376_n60# a_n1276_n60# a_1480_n104# a_52_n104# a_868_n104# a_n152_n104#
+ a_1172_n60# a_n1072_n60# a_n1172_n104# a_n968_n104# a_1072_n104# a_968_n60# a_n868_n60#
+ w_n1754_n190#
X0 a_n256_n60# a_n356_n104# a_n460_n60# w_n1754_n190# pfet_03v3 ad=0.156p pd=1.12u as=0.156p ps=1.12u w=0.6u l=0.5u
X1 a_1376_n60# a_1276_n104# a_1172_n60# w_n1754_n190# pfet_03v3 ad=0.156p pd=1.12u as=0.156p ps=1.12u w=0.6u l=0.5u
X2 a_1580_n60# a_1480_n104# a_1376_n60# w_n1754_n190# pfet_03v3 ad=0.264p pd=2.08u as=0.156p ps=1.12u w=0.6u l=0.5u
X3 a_n460_n60# a_n560_n104# a_n664_n60# w_n1754_n190# pfet_03v3 ad=0.156p pd=1.12u as=0.156p ps=1.12u w=0.6u l=0.5u
X4 a_n664_n60# a_n764_n104# a_n868_n60# w_n1754_n190# pfet_03v3 ad=0.156p pd=1.12u as=0.156p ps=1.12u w=0.6u l=0.5u
X5 a_n1072_n60# a_n1172_n104# a_n1276_n60# w_n1754_n190# pfet_03v3 ad=0.156p pd=1.12u as=0.156p ps=1.12u w=0.6u l=0.5u
X6 a_n868_n60# a_n968_n104# a_n1072_n60# w_n1754_n190# pfet_03v3 ad=0.156p pd=1.12u as=0.156p ps=1.12u w=0.6u l=0.5u
X7 a_356_n60# a_256_n104# a_152_n60# w_n1754_n190# pfet_03v3 ad=0.156p pd=1.12u as=0.156p ps=1.12u w=0.6u l=0.5u
X8 a_n1276_n60# a_n1376_n104# a_n1480_n60# w_n1754_n190# pfet_03v3 ad=0.156p pd=1.12u as=0.156p ps=1.12u w=0.6u l=0.5u
X9 a_560_n60# a_460_n104# a_356_n60# w_n1754_n190# pfet_03v3 ad=0.156p pd=1.12u as=0.156p ps=1.12u w=0.6u l=0.5u
X10 a_n1480_n60# a_n1580_n104# a_n1668_n60# w_n1754_n190# pfet_03v3 ad=0.156p pd=1.12u as=0.264p ps=2.08u w=0.6u l=0.5u
X11 a_764_n60# a_664_n104# a_560_n60# w_n1754_n190# pfet_03v3 ad=0.156p pd=1.12u as=0.156p ps=1.12u w=0.6u l=0.5u
X12 a_152_n60# a_52_n104# a_n52_n60# w_n1754_n190# pfet_03v3 ad=0.156p pd=1.12u as=0.156p ps=1.12u w=0.6u l=0.5u
X13 a_968_n60# a_868_n104# a_764_n60# w_n1754_n190# pfet_03v3 ad=0.156p pd=1.12u as=0.156p ps=1.12u w=0.6u l=0.5u
X14 a_n52_n60# a_n152_n104# a_n256_n60# w_n1754_n190# pfet_03v3 ad=0.156p pd=1.12u as=0.156p ps=1.12u w=0.6u l=0.5u
X15 a_1172_n60# a_1072_n104# a_968_n60# w_n1754_n190# pfet_03v3 ad=0.156p pd=1.12u as=0.156p ps=1.12u w=0.6u l=0.5u
.ends

.subckt pmos_3p3_ZBCND7 a_n1276_n100# a_1072_n144# a_1988_n100# a_n460_n100# a_1888_n144#
+ a_n1480_n100# a_764_n100# a_664_n144# a_n764_n144# a_n1784_n144# a_n52_n100# a_n1072_n100#
+ a_1784_n100# a_356_n100# a_n868_n100# a_n1888_n100# a_1684_n144# a_256_n144# a_n356_n144#
+ a_560_n100# a_n1376_n144# a_460_n144# a_1376_n100# a_n560_n144# a_1276_n144# a_n1580_n144#
+ a_1580_n100# a_152_n100# a_n664_n100# a_n1684_n100# a_n2076_n100# a_1480_n144# a_968_n100#
+ a_52_n144# a_868_n144# a_n152_n144# a_n1172_n144# w_n2162_n230# a_n968_n144# a_1172_n100#
+ a_n256_n100# a_n1988_n144#
X0 a_n664_n100# a_n764_n144# a_n868_n100# w_n2162_n230# pfet_03v3 ad=0.26p pd=1.52u as=0.26p ps=1.52u w=1u l=0.5u
X1 a_1784_n100# a_1684_n144# a_1580_n100# w_n2162_n230# pfet_03v3 ad=0.26p pd=1.52u as=0.26p ps=1.52u w=1u l=0.5u
X2 a_1988_n100# a_1888_n144# a_1784_n100# w_n2162_n230# pfet_03v3 ad=0.44p pd=2.88u as=0.26p ps=1.52u w=1u l=0.5u
X3 a_n1072_n100# a_n1172_n144# a_n1276_n100# w_n2162_n230# pfet_03v3 ad=0.26p pd=1.52u as=0.26p ps=1.52u w=1u l=0.5u
X4 a_n868_n100# a_n968_n144# a_n1072_n100# w_n2162_n230# pfet_03v3 ad=0.26p pd=1.52u as=0.26p ps=1.52u w=1u l=0.5u
X5 a_n1276_n100# a_n1376_n144# a_n1480_n100# w_n2162_n230# pfet_03v3 ad=0.26p pd=1.52u as=0.26p ps=1.52u w=1u l=0.5u
X6 a_356_n100# a_256_n144# a_152_n100# w_n2162_n230# pfet_03v3 ad=0.26p pd=1.52u as=0.26p ps=1.52u w=1u l=0.5u
X7 a_560_n100# a_460_n144# a_356_n100# w_n2162_n230# pfet_03v3 ad=0.26p pd=1.52u as=0.26p ps=1.52u w=1u l=0.5u
X8 a_n1480_n100# a_n1580_n144# a_n1684_n100# w_n2162_n230# pfet_03v3 ad=0.26p pd=1.52u as=0.26p ps=1.52u w=1u l=0.5u