* NGSPICE file created from DAC_12_Bit.ext - technology: gf180mcuC

.subckt nmos_3p3_AGPLV7 a_n138_n60# a_50_n60# a_n50_n104# VSUBS
X0 a_50_n60# a_n50_n104# a_n138_n60# VSUBS nfet_03v3 ad=0.264p pd=2.08u as=0.264p ps=2.08u w=0.6u l=0.5u
.ends

.subckt nmos_3p3_AQEADK a_n138_n60# a_50_n60# a_n50_n104# VSUBS
X0 a_50_n60# a_n50_n104# a_n138_n60# VSUBS nfet_03v3 ad=0.264p pd=2.08u as=0.264p ps=2.08u w=0.6u l=0.5u
.ends

.subckt MSB_Unit_Cell_p2 m1_34_n336# a_316_n480# a_51_258# a_316_26# m1_23_6# a_3095_69#
+ VSUBS
Xnmos_3p3_AGPLV7_5 m1_34_n336# a_3095_69# a_316_26# VSUBS nmos_3p3_AGPLV7
Xnmos_3p3_AGPLV7_6 a_3095_69# m1_23_6# a_316_n480# VSUBS nmos_3p3_AGPLV7
Xnmos_3p3_AGPLV7_7 m1_23_6# a_3095_69# a_316_n480# VSUBS nmos_3p3_AGPLV7
Xnmos_3p3_AGPLV7_8 a_3095_69# m1_34_n336# a_316_26# VSUBS nmos_3p3_AGPLV7
Xnmos_3p3_AGPLV7_9 m1_34_n336# a_3095_69# a_316_26# VSUBS nmos_3p3_AGPLV7
Xnmos_3p3_AQEADK_0 a_3095_69# m1_34_n336# a_316_26# VSUBS nmos_3p3_AQEADK
Xnmos_3p3_AQEADK_1 m1_23_6# a_3095_69# a_51_258# VSUBS nmos_3p3_AQEADK
Xnmos_3p3_AQEADK_2 a_3095_69# m1_34_n336# a_316_26# VSUBS nmos_3p3_AQEADK
Xnmos_3p3_AQEADK_4 a_3095_69# m1_23_6# a_51_258# VSUBS nmos_3p3_AQEADK
Xnmos_3p3_AQEADK_3 m1_34_n336# a_3095_69# a_316_26# VSUBS nmos_3p3_AQEADK
Xnmos_3p3_AQEADK_5 m1_23_6# a_3095_69# a_51_258# VSUBS nmos_3p3_AQEADK
Xnmos_3p3_AQEADK_10 a_3095_69# m1_23_6# a_51_258# VSUBS nmos_3p3_AQEADK
Xnmos_3p3_AQEADK_6 a_3095_69# m1_34_n336# a_316_26# VSUBS nmos_3p3_AQEADK
Xnmos_3p3_AQEADK_11 m1_34_n336# a_3095_69# a_316_26# VSUBS nmos_3p3_AQEADK
Xnmos_3p3_AQEADK_7 m1_34_n336# a_3095_69# a_316_26# VSUBS nmos_3p3_AQEADK
Xnmos_3p3_AQEADK_12 a_3095_69# m1_23_6# a_51_258# VSUBS nmos_3p3_AQEADK
Xnmos_3p3_AQEADK_8 a_3095_69# m1_23_6# a_51_258# VSUBS nmos_3p3_AQEADK
Xnmos_3p3_AQEADK_13 m1_23_6# a_3095_69# a_51_258# VSUBS nmos_3p3_AQEADK
Xnmos_3p3_AQEADK_9 m1_23_6# a_3095_69# a_51_258# VSUBS nmos_3p3_AQEADK
Xnmos_3p3_AQEADK_15 m1_34_n336# a_3095_69# a_316_26# VSUBS nmos_3p3_AQEADK
Xnmos_3p3_AQEADK_14 a_3095_69# m1_34_n336# a_316_26# VSUBS nmos_3p3_AQEADK
Xnmos_3p3_AGPLV7_10 a_3095_69# m1_23_6# a_316_n480# VSUBS nmos_3p3_AGPLV7
Xnmos_3p3_AGPLV7_12 a_3095_69# m1_23_6# a_316_n480# VSUBS nmos_3p3_AGPLV7
Xnmos_3p3_AGPLV7_11 m1_23_6# a_3095_69# a_316_n480# VSUBS nmos_3p3_AGPLV7
Xnmos_3p3_AGPLV7_13 m1_34_n336# a_3095_69# a_316_26# VSUBS nmos_3p3_AGPLV7
Xnmos_3p3_AGPLV7_14 m1_23_6# a_3095_69# a_316_n480# VSUBS nmos_3p3_AGPLV7
Xnmos_3p3_AGPLV7_15 a_3095_69# m1_34_n336# a_316_26# VSUBS nmos_3p3_AGPLV7
Xnmos_3p3_AGPLV7_0 a_3095_69# m1_34_n336# a_316_26# VSUBS nmos_3p3_AGPLV7
Xnmos_3p3_AGPLV7_1 m1_34_n336# a_3095_69# a_316_26# VSUBS nmos_3p3_AGPLV7
Xnmos_3p3_AGPLV7_2 a_3095_69# m1_23_6# a_316_n480# VSUBS nmos_3p3_AGPLV7
Xnmos_3p3_AGPLV7_3 m1_23_6# a_3095_69# a_316_n480# VSUBS nmos_3p3_AGPLV7
Xnmos_3p3_AGPLV7_4 a_3095_69# m1_34_n336# a_316_26# VSUBS nmos_3p3_AGPLV7
.ends

.subckt pmos_3p3_M8RWPS a_n28_n94# w_n202_n180# a_n116_n50# a_28_n50#
X0 a_28_n50# a_n28_n94# a_n116_n50# w_n202_n180# pfet_03v3 ad=0.22p pd=1.88u as=0.22p ps=1.88u w=0.5u l=0.28u
.ends

.subckt nmos_3p3_HZS5UA a_n28_n94# a_n116_n50# a_28_n50# VSUBS
X0 a_28_n50# a_n28_n94# a_n116_n50# VSUBS nfet_03v3 ad=0.22p pd=1.88u as=0.22p ps=1.88u w=0.5u l=0.28u
.ends

.subckt NAND VDD VSS B A OUT SD
Xpmos_3p3_M8RWPS_0 A VDD VDD OUT pmos_3p3_M8RWPS
Xpmos_3p3_M8RWPS_1 B VDD VDD OUT pmos_3p3_M8RWPS
Xnmos_3p3_HZS5UA_0 A SD OUT VSS nmos_3p3_HZS5UA
Xnmos_3p3_HZS5UA_1 B VSS SD VSS nmos_3p3_HZS5UA
.ends

.subckt Local_Enc Q QB Ci Ri Ri-1 VDD VSS
XNAND_0 VDD VSS Ri-1 Ri-1 NAND_1/B NAND_0/SD NAND
XNAND_1 VDD VSS NAND_1/B NAND_1/B NAND_5/B NAND_1/SD NAND
XNAND_2 VDD VSS Ci Ci NAND_6/B NAND_2/SD NAND
XNAND_3 VDD VSS Ri Ri NAND_6/A NAND_3/SD NAND
XNAND_4 VDD VSS NAND_4/B Q QB NAND_4/SD NAND
XNAND_5 VDD VSS NAND_5/B NAND_5/A NAND_8/A NAND_5/SD NAND
XNAND_6 VDD VSS NAND_6/B NAND_6/A NAND_5/A NAND_6/SD NAND
XNAND_7 VDD VSS NAND_8/A NAND_8/A NAND_4/B NAND_7/SD NAND
XNAND_8 VDD VSS QB NAND_8/A Q NAND_8/SD NAND
.ends

.subckt nmos_3p3_LNPLVM a_2192_n120# a_3112_n164# a_n2296_n120# a_2092_n164# a_n968_n164#
+ a_1172_n120# a_n256_n120# a_n1988_n164# a_n1276_n120# a_1072_n164# a_1988_n120#
+ a_2908_n164# a_1888_n164# a_n460_n120# a_n2500_n120# a_n1480_n120# a_764_n120# a_664_n164#
+ a_n2092_n120# a_n3112_n120# a_n764_n164# a_n2804_n164# a_n1784_n164# a_n52_n120#
+ a_n1072_n120# a_2804_n120# a_1784_n120# a_356_n120# a_n868_n120# a_n2908_n120# a_2704_n164#
+ a_1684_n164# a_n1888_n120# a_256_n164# a_n2396_n164# a_n356_n164# a_560_n120# a_n1376_n164#
+ a_2396_n120# a_460_n164# a_2296_n164# a_1376_n120# a_n560_n164# a_1276_n164# a_n1580_n164#
+ a_n2600_n164# a_n3008_n164# a_2600_n120# a_1580_n120# a_3008_n120# a_152_n120# a_n664_n120#
+ a_n2704_n120# a_2500_n164# a_1480_n164# a_n1684_n120# a_968_n120# a_52_n164# a_n2192_n164#
+ a_n3212_n164# a_868_n164# a_n152_n164# a_3212_n120# a_n3300_n120# a_n1172_n164#
+ VSUBS
X0 a_n460_n120# a_n560_n164# a_n664_n120# VSUBS nfet_03v3 ad=0.312p pd=1.72u as=0.312p ps=1.72u w=1.2u l=0.5u
X1 a_n52_n120# a_n152_n164# a_n256_n120# VSUBS nfet_03v3 ad=0.312p pd=1.72u as=0.312p ps=1.72u w=1.2u l=0.5u
X2 a_n1480_n120# a_n1580_n164# a_n1684_n120# VSUBS nfet_03v3 ad=0.312p pd=1.72u as=0.312p ps=1.72u w=1.2u l=0.5u
X3 a_n1072_n120# a_n1172_n164# a_n1276_n120# VSUBS nfet_03v3 ad=0.312p pd=1.72u as=0.312p ps=1.72u w=1.2u l=0.5u
X4 a_1172_n120# a_1072_n164# a_968_n120# VSUBS nfet_03v3 ad=0.312p pd=1.72u as=0.312p ps=1.72u w=1.2u l=0.5u
X5 a_n868_n120# a_n968_n164# a_n1072_n120# VSUBS nfet_03v3 ad=0.312p pd=1.72u as=0.312p ps=1.72u w=1.2u l=0.5u
X6 a_n1888_n120# a_n1988_n164# a_n2092_n120# VSUBS nfet_03v3 ad=0.312p pd=1.72u as=0.312p ps=1.72u w=1.2u l=0.5u
X7 a_1988_n120# a_1888_n164# a_1784_n120# VSUBS nfet_03v3 ad=0.312p pd=1.72u as=0.312p ps=1.72u w=1.2u l=0.5u
X8 a_1580_n120# a_1480_n164# a_1376_n120# VSUBS nfet_03v3 ad=0.312p pd=1.72u as=0.312p ps=1.72u w=1.2u l=0.5u
X9 a_968_n120# a_868_n164# a_764_n120# VSUBS nfet_03v3 ad=0.312p pd=1.72u as=0.312p ps=1.72u w=1.2u l=0.5u
X10 a_3008_n120# a_2908_n164# a_2804_n120# VSUBS nfet_03v3 ad=0.312p pd=1.72u as=0.312p ps=1.72u w=1.2u l=0.5u
X11 a_n2500_n120# a_n2600_n164# a_n2704_n120# VSUBS nfet_03v3 ad=0.312p pd=1.72u as=0.312p ps=1.72u w=1.2u l=0.5u
X12 a_n2092_n120# a_n2192_n164# a_n2296_n120# VSUBS nfet_03v3 ad=0.312p pd=1.72u as=0.312p ps=1.72u w=1.2u l=0.5u
X13 a_560_n120# a_460_n164# a_356_n120# VSUBS nfet_03v3 ad=0.312p pd=1.72u as=0.312p ps=1.72u w=1.2u l=0.5u
X14 a_2192_n120# a_2092_n164# a_1988_n120# VSUBS nfet_03v3 ad=0.312p pd=1.72u as=0.312p ps=1.72u w=1.2u l=0.5u
X15 a_2600_n120# a_2500_n164# a_2396_n120# VSUBS nfet_03v3 ad=0.312p pd=1.72u as=0.312p ps=1.72u w=1.2u l=0.5u
X16 a_n3112_n120# a_n3212_n164# a_n3300_n120# VSUBS nfet_03v3 ad=0.312p pd=1.72u as=0.528p ps=3.28u w=1.2u l=0.5u
X17 a_3212_n120# a_3112_n164# a_3008_n120# VSUBS nfet_03v3 ad=0.528p pd=3.28u as=0.312p ps=1.72u w=1.2u l=0.5u
X18 a_n256_n120# a_n356_n164# a_n460_n120# VSUBS nfet_03v3 ad=0.312p pd=1.72u as=0.312p ps=1.72u w=1.2u l=0.5u
X19 a_n1276_n120# a_n1376_n164# a_n1480_n120# VSUBS nfet_03v3 ad=0.312p pd=1.72u as=0.312p ps=1.72u w=1.2u l=0.5u
X20 a_1376_n120# a_1276_n164# a_1172_n120# VSUBS nfet_03v3 ad=0.312p pd=1.72u as=0.312p ps=1.72u w=1.2u l=0.5u
X21 a_356_n120# a_256_n164# a_152_n120# VSUBS nfet_03v3 ad=0.312p pd=1.72u as=0.312p ps=1.72u w=1.2u l=0.5u
X22 a_n2908_n120# a_n3008_n164# a_n3112_n120# VSUBS nfet_03v3 ad=0.312p pd=1.72u as=0.312p ps=1.72u w=1.2u l=0.5u
X23 a_n664_n120# a_n764_n164# a_n868_n120# VSUBS nfet_03v3 ad=0.312p pd=1.72u as=0.312p ps=1.72u w=1.2u l=0.5u
X24 a_152_n120# a_52_n164# a_n52_n120# VSUBS nfet_03v3 ad=0.312p pd=1.72u as=0.312p ps=1.72u w=1.2u l=0.5u
X25 a_n1684_n120# a_n1784_n164# a_n1888_n120# VSUBS nfet_03v3 ad=0.312p pd=1.72u as=0.312p ps=1.72u w=1.2u l=0.5u
X26 a_1784_n120# a_1684_n164# a_1580_n120# VSUBS nfet_03v3 ad=0.312p pd=1.72u as=0.312p ps=1.72u w=1.2u l=0.5u
X27 a_764_n120# a_664_n164# a_560_n120# VSUBS nfet_03v3 ad=0.312p pd=1.72u as=0.312p ps=1.72u w=1.2u l=0.5u
X28 a_2804_n120# a_2704_n164# a_2600_n120# VSUBS nfet_03v3 ad=0.312p pd=1.72u as=0.312p ps=1.72u w=1.2u l=0.5u
X29 a_n2704_n120# a_n2804_n164# a_n2908_n120# VSUBS nfet_03v3 ad=0.312p pd=1.72u as=0.312p ps=1.72u w=1.2u l=0.5u
X30 a_n2296_n120# a_n2396_n164# a_n2500_n120# VSUBS nfet_03v3 ad=0.312p pd=1.72u as=0.312p ps=1.72u w=1.2u l=0.5u
X31 a_2396_n120# a_2296_n164# a_2192_n120# VSUBS nfet_03v3 ad=0.312p pd=1.72u as=0.312p ps=1.72u w=1.2u l=0.5u
.ends

.subckt CM_MSB_V2 IM_T VSS OUT IM SD
Xnmos_3p3_LNPLVM_0 SD IM_T SD IM IM_T VSS SD IM VSS IM VSS IM IM VSS OUT SD OUT IM_T
+ VSS SD IM_T IM IM_T OUT SD VSS SD VSS OUT VSS IM IM_T SD IM IM_T IM SD IM OUT IM
+ IM_T SD IM IM IM_T IM_T IM SD OUT SD SD SD SD IM_T IM_T OUT SD IM_T IM IM_T IM_T
+ IM_T OUT OUT IM VSS nmos_3p3_LNPLVM
Xnmos_3p3_LNPLVM_1 SD IM SD IM_T IM OUT SD IM_T OUT IM_T OUT IM_T IM_T OUT VSS SD
+ VSS IM OUT SD IM IM_T IM VSS SD OUT SD OUT VSS OUT IM_T IM SD IM_T IM IM_T SD IM_T
+ VSS IM_T IM SD IM_T IM_T IM IM IM_T SD VSS SD SD SD SD IM IM VSS SD IM IM_T IM IM
+ IM VSS VSS IM_T VSS nmos_3p3_LNPLVM
.ends

.subckt MSB_Unit_Cell IM Ri Ci VDD QB Q OUT OUT+ OUT- SD Ri-1 IM_T VSS
XMSB_Unit_Cell_p2_3 OUT- Q Q QB OUT+ OUT VSS MSB_Unit_Cell_p2
XLocal_Enc_0 Q QB Ci Ri Ri-1 VDD VSS Local_Enc
XCM_MSB_V2_0 IM_T VSS OUT IM SD CM_MSB_V2
XMSB_Unit_Cell_p2_0 OUT- Q Q QB OUT+ OUT VSS MSB_Unit_Cell_p2
XMSB_Unit_Cell_p2_1 OUT- Q Q QB OUT+ OUT VSS MSB_Unit_Cell_p2
XMSB_Unit_Cell_p2_2 OUT- Q Q QB OUT+ OUT VSS MSB_Unit_Cell_p2
.ends

.subckt nmos_3p3_H9QVWA a_n120_n36# a_28_n25# a_n28_n69# VSUBS
X0 a_28_n25# a_n28_n69# a_n120_n36# VSUBS nfet_03v3 ad=0.155p pd=1.64u as=0.155p ps=1.64u w=0.25u l=0.28u
.ends

.subckt Inverter VDD VSS IN OUT
Xnmos_3p3_H9QVWA_0 VSS OUT IN VSS nmos_3p3_H9QVWA
Xpmos_3p3_M8RWPS_0 IN VDD VDD OUT pmos_3p3_M8RWPS
.ends

.subckt INV_BUFF IN SD1 OUT VDD VSS
XInverter_0 VDD VSS SD1 OUT Inverter
XInverter_1 VDD VSS IN SD1 Inverter
.ends

.subckt nmos_3p3_9NPLV7 a_3008_n60# a_764_n60# a_n664_n60# a_2192_n60# a_n2092_n60#
+ a_664_n104# a_2804_n60# a_n2704_n60# a_560_n60# a_n460_n60# a_n764_n104# a_n2804_n104#
+ a_1988_n60# a_n1888_n60# a_n1784_n104# a_2600_n60# a_n2500_n60# a_2704_n104# a_1684_n104#
+ a_256_n104# a_1784_n60# a_n256_n60# a_n1684_n60# a_356_n60# a_n2396_n104# a_n356_n104#
+ a_460_n104# a_n1376_n104# a_1580_n60# a_n1480_n60# a_2296_n104# a_152_n60# a_1276_n104#
+ a_n560_n104# a_n2600_n104# a_n1580_n104# a_n3008_n104# a_n52_n60# a_2500_n104# a_1376_n60#
+ a_n1276_n60# a_1480_n104# a_n3212_n104# a_52_n104# a_n2192_n104# a_868_n104# a_n152_n104#
+ a_1172_n60# a_n1072_n60# a_n1172_n104# a_3112_n104# a_2092_n104# a_n968_n104# a_n1988_n104#
+ a_3212_n60# a_n3112_n60# a_n3300_n60# a_1072_n104# a_968_n60# a_n868_n60# a_2908_n104#
+ a_2396_n60# a_n2296_n60# a_1888_n104# a_n2908_n60# VSUBS
X0 a_n2908_n60# a_n3008_n104# a_n3112_n60# VSUBS nfet_03v3 ad=0.156p pd=1.12u as=0.156p ps=1.12u w=0.6u l=0.5u
X1 a_n256_n60# a_n356_n104# a_n460_n60# VSUBS nfet_03v3 ad=0.156p pd=1.12u as=0.156p ps=1.12u w=0.6u l=0.5u
X2 a_1376_n60# a_1276_n104# a_1172_n60# VSUBS nfet_03v3 ad=0.156p pd=1.12u as=0.156p ps=1.12u w=0.6u l=0.5u
X3 a_n3112_n60# a_n3212_n104# a_n3300_n60# VSUBS nfet_03v3 ad=0.156p pd=1.12u as=0.264p ps=2.08u w=0.6u l=0.5u
X4 a_1580_n60# a_1480_n104# a_1376_n60# VSUBS nfet_03v3 ad=0.156p pd=1.12u as=0.156p ps=1.12u w=0.6u l=0.5u
X5 a_n2704_n60# a_n2804_n104# a_n2908_n60# VSUBS nfet_03v3 ad=0.156p pd=1.12u as=0.156p ps=1.12u w=0.6u l=0.5u
X6 a_n460_n60# a_n560_n104# a_n664_n60# VSUBS nfet_03v3 ad=0.156p pd=1.12u as=0.156p ps=1.12u w=0.6u l=0.5u
X7 a_2192_n60# a_2092_n104# a_1988_n60# VSUBS nfet_03v3 ad=0.156p pd=1.12u as=0.156p ps=1.12u w=0.6u l=0.5u
X8 a_n664_n60# a_n764_n104# a_n868_n60# VSUBS nfet_03v3 ad=0.156p pd=1.12u as=0.156p ps=1.12u w=0.6u l=0.5u
X9 a_1784_n60# a_1684_n104# a_1580_n60# VSUBS nfet_03v3 ad=0.156p pd=1.12u as=0.156p ps=1.12u w=0.6u l=0.5u
X10 a_2396_n60# a_2296_n104# a_2192_n60# VSUBS nfet_03v3 ad=0.156p pd=1.12u as=0.156p ps=1.12u w=0.6u l=0.5u
X11 a_n1072_n60# a_n1172_n104# a_n1276_n60# VSUBS nfet_03v3 ad=0.156p pd=1.12u as=0.156p ps=1.12u w=0.6u l=0.5u
X12 a_n868_n60# a_n968_n104# a_n1072_n60# VSUBS nfet_03v3 ad=0.156p pd=1.12u as=0.156p ps=1.12u w=0.6u l=0.5u
X13 a_1988_n60# a_1888_n104# a_1784_n60# VSUBS nfet_03v3 ad=0.156p pd=1.12u as=0.156p ps=1.12u w=0.6u l=0.5u
X14 a_356_n60# a_256_n104# a_152_n60# VSUBS nfet_03v3 ad=0.156p pd=1.12u as=0.156p ps=1.12u w=0.6u l=0.5u
X15 a_n1276_n60# a_n1376_n104# a_n1480_n60# VSUBS nfet_03v3 ad=0.156p pd=1.12u as=0.156p ps=1.12u w=0.6u l=0.5u
X16 a_560_n60# a_460_n104# a_356_n60# VSUBS nfet_03v3 ad=0.156p pd=1.12u as=0.156p ps=1.12u w=0.6u l=0.5u
X17 a_n1480_n60# a_n1580_n104# a_n1684_n60# VSUBS nfet_03v3 ad=0.156p pd=1.12u as=0.156p ps=1.12u w=0.6u l=0.5u
X18 a_n2092_n60# a_n2192_n104# a_n2296_n60# VSUBS nfet_03v3 ad=0.156p pd=1.12u as=0.156p ps=1.12u w=0.6u l=0.5u
X19 a_2600_n60# a_2500_n104# a_2396_n60# VSUBS nfet_03v3 ad=0.156p pd=1.12u as=0.156p ps=1.12u w=0.6u l=0.5u
X20 a_764_n60# a_664_n104# a_560_n60# VSUBS nfet_03v3 ad=0.156p pd=1.12u as=0.156p ps=1.12u w=0.6u l=0.5u
X21 a_n1684_n60# a_n1784_n104# a_n1888_n60# VSUBS nfet_03v3 ad=0.156p pd=1.12u as=0.156p ps=1.12u w=0.6u l=0.5u
X22 a_3212_n60# a_3112_n104# a_3008_n60# VSUBS nfet_03v3 ad=0.264p pd=2.08u as=0.156p ps=1.12u w=0.6u l=0.5u
X23 a_152_n60# a_52_n104# a_n52_n60# VSUBS nfet_03v3 ad=0.156p pd=1.12u as=0.156p ps=1.12u w=0.6u l=0.5u
X24 a_n2296_n60# a_n2396_n104# a_n2500_n60# VSUBS nfet_03v3 ad=0.156p pd=1.12u as=0.156p ps=1.12u w=0.6u l=0.5u
X25 a_2804_n60# a_2704_n104# a_2600_n60# VSUBS nfet_03v3 ad=0.156p pd=1.12u as=0.156p ps=1.12u w=0.6u l=0.5u
X26 a_n1888_n60# a_n1988_n104# a_n2092_n60# VSUBS nfet_03v3 ad=0.156p pd=1.12u as=0.156p ps=1.12u w=0.6u l=0.5u
X27 a_968_n60# a_868_n104# a_764_n60# VSUBS nfet_03v3 ad=0.156p pd=1.12u as=0.156p ps=1.12u w=0.6u l=0.5u
X28 a_n2500_n60# a_n2600_n104# a_n2704_n60# VSUBS nfet_03v3 ad=0.156p pd=1.12u as=0.156p ps=1.12u w=0.6u l=0.5u
X29 a_3008_n60# a_2908_n104# a_2804_n60# VSUBS nfet_03v3 ad=0.156p pd=1.12u as=0.156p ps=1.12u w=0.6u l=0.5u
X30 a_n52_n60# a_n152_n104# a_n256_n60# VSUBS nfet_03v3 ad=0.156p pd=1.12u as=0.156p ps=1.12u w=0.6u l=0.5u
X31 a_1172_n60# a_1072_n104# a_968_n60# VSUBS nfet_03v3 ad=0.156p pd=1.12u as=0.156p ps=1.12u w=0.6u l=0.5u
.ends

.subckt pmos_3p3_DVR9E7 a_3008_n60# a_764_n60# a_n664_n60# a_2192_n60# a_n2092_n60#
+ a_664_n104# w_n3386_n190# a_2804_n60# a_n2704_n60# a_560_n60# a_n460_n60# a_n764_n104#
+ a_n2804_n104# a_1988_n60# a_n1888_n60# a_n1784_n104# a_2600_n60# a_n2500_n60# a_2704_n104#
+ a_1684_n104# a_256_n104# a_1784_n60# a_n256_n60# a_n1684_n60# a_356_n60# a_n2396_n104#
+ a_n356_n104# a_460_n104# a_n1376_n104# a_1580_n60# a_n1480_n60# a_2296_n104# a_152_n60#
+ a_1276_n104# a_n560_n104# a_n2600_n104# a_n1580_n104# a_n3008_n104# a_n52_n60# a_2500_n104#
+ a_1376_n60# a_n1276_n60# a_1480_n104# a_n3212_n104# a_52_n104# a_n2192_n104# a_868_n104#
+ a_n152_n104# a_1172_n60# a_n1072_n60# a_n1172_n104# a_3112_n104# a_2092_n104# a_n968_n104#
+ a_n1988_n104# a_3212_n60# a_n3112_n60# a_n3300_n60# a_1072_n104# a_968_n60# a_n868_n60#
+ a_2908_n104# a_2396_n60# a_n2296_n60# a_1888_n104# a_n2908_n60#
X0 a_n2908_n60# a_n3008_n104# a_n3112_n60# w_n3386_n190# pfet_03v3 ad=0.156p pd=1.12u as=0.156p ps=1.12u w=0.6u l=0.5u
X1 a_n256_n60# a_n356_n104# a_n460_n60# w_n3386_n190# pfet_03v3 ad=0.156p pd=1.12u as=0.156p ps=1.12u w=0.6u l=0.5u
X2 a_1376_n60# a_1276_n104# a_1172_n60# w_n3386_n190# pfet_03v3 ad=0.156p pd=1.12u as=0.156p ps=1.12u w=0.6u l=0.5u
X3 a_n3112_n60# a_n3212_n104# a_n3300_n60# w_n3386_n190# pfet_03v3 ad=0.156p pd=1.12u as=0.264p ps=2.08u w=0.6u l=0.5u
X4 a_1580_n60# a_1480_n104# a_1376_n60# w_n3386_n190# pfet_03v3 ad=0.156p pd=1.12u as=0.156p ps=1.12u w=0.6u l=0.5u
X5 a_n2704_n60# a_n2804_n104# a_n2908_n60# w_n3386_n190# pfet_03v3 ad=0.156p pd=1.12u as=0.156p ps=1.12u w=0.6u l=0.5u
X6 a_n460_n60# a_n560_n104# a_n664_n60# w_n3386_n190# pfet_03v3 ad=0.156p pd=1.12u as=0.156p ps=1.12u w=0.6u l=0.5u
X7 a_2192_n60# a_2092_n104# a_1988_n60# w_n3386_n190# pfet_03v3 ad=0.156p pd=1.12u as=0.156p ps=1.12u w=0.6u l=0.5u
X8 a_n664_n60# a_n764_n104# a_n868_n60# w_n3386_n190# pfet_03v3 ad=0.156p pd=1.12u as=0.156p ps=1.12u w=0.6u l=0.5u
X9 a_1784_n60# a_1684_n104# a_1580_n60# w_n3386_n190# pfet_03v3 ad=0.156p pd=1.12u as=0.156p ps=1.12u w=0.6u l=0.5u
X10 a_2396_n60# a_2296_n104# a_2192_n60# w_n3386_n190# pfet_03v3 ad=0.156p pd=1.12u as=0.156p ps=1.12u w=0.6u l=0.5u
X11 a_n1072_n60# a_n1172_n104# a_n1276_n60# w_n3386_n190# pfet_03v3 ad=0.156p pd=1.12u as=0.156p ps=1.12u w=0.6u l=0.5u
X12 a_n868_n60# a_n968_n104# a_n1072_n60# w_n3386_n190# pfet_03v3 ad=0.156p pd=1.12u as=0.156p ps=1.12u w=0.6u l=0.5u
X13 a_1988_n60# a_1888_n104# a_1784_n60# w_n3386_n190# pfet_03v3 ad=0.156p pd=1.12u as=0.156p ps=1.12u w=0.6u l=0.5u
X14 a_356_n60# a_256_n104# a_152_n60# w_n3386_n190# pfet_03v3 ad=0.156p pd=1.12u as=0.156p ps=1.12u w=0.6u l=0.5u
X15 a_n1276_n60# a_n1376_n104# a_n1480_n60# w_n3386_n190# pfet_03v3 ad=0.156p pd=1.12u as=0.156p ps=1.12u w=0.6u l=0.5u
X16 a_560_n60# a_460_n104# a_356_n60# w_n3386_n190# pfet_03v3 ad=0.156p pd=1.12u as=0.156p ps=1.12u w=0.6u l=0.5u
X17 a_n1480_n60# a_n1580_n104# a_n1684_n60# w_n3386_n190# pfet_03v3 ad=0.156p pd=1.12u as=0.156p ps=1.12u w=0.6u l=0.5u
X18 a_n2092_n60# a_n2192_n104# a_n2296_n60# w_n3386_n190# pfet_03v3 ad=0.156p pd=1.12u as=0.156p ps=1.12u w=0.6u l=0.5u
X19 a_2600_n60# a_2500_n104# a_2396_n60# w_n3386_n190# pfet_03v3 ad=0.156p pd=1.12u as=0.156p ps=1.12u w=0.6u l=0.5u
X20 a_764_n60# a_664_n104# a_560_n60# w_n3386_n190# pfet_03v3 ad=0.156p pd=1.12u as=0.156p ps=1.12u w=0.6u l=0.5u
X21 a_n1684_n60# a_n1784_n104# a_n1888_n60# w_n3386_n190# pfet_03v3 ad=0.156p pd=1.12u as=0.156p ps=1.12u w=0.6u l=0.5u
X22 a_3212_n60# a_3112_n104# a_3008_n60# w_n3386_n190# pfet_03v3 ad=0.264p pd=2.08u as=0.156p ps=1.12u w=0.6u l=0.5u
X23 a_n2296_n60# a_n2396_n104# a_n2500_n60# w_n3386_n190# pfet_03v3 ad=0.156p pd=1.12u as=0.156p ps=1.12u w=0.6u l=0.5u
X24 a_152_n60# a_52_n104# a_n52_n60# w_n3386_n190# pfet_03v3 ad=0.156p pd=1.12u as=0.156p ps=1.12u w=0.6u l=0.5u
X25 a_2804_n60# a_2704_n104# a_2600_n60# w_n3386_n190# pfet_03v3 ad=0.156p pd=1.12u as=0.156p ps=1.12u w=0.6u l=0.5u
X26 a_n1888_n60# a_n1988_n104# a_n2092_n60# w_n3386_n190# pfet_03v3 ad=0.156p pd=1.12u as=0.156p ps=1.12u w=0.6u l=0.5u
X27 a_968_n60# a_868_n104# a_764_n60# w_n3386_n190# pfet_03v3 ad=0.156p pd=1.12u as=0.156p ps=1.12u w=0.6u l=0.5u
X28 a_n2500_n60# a_n2600_n104# a_n2704_n60# w_n3386_n190# pfet_03v3 ad=0.156p pd=1.12u as=0.156p ps=1.12u w=0.6u l=0.5u
X29 a_3008_n60# a_2908_n104# a_2804_n60# w_n3386_n190# pfet_03v3 ad=0.156p pd=1.12u as=0.156p ps=1.12u w=0.6u l=0.5u
X30 a_n52_n60# a_n152_n104# a_n256_n60# w_n3386_n190# pfet_03v3 ad=0.156p pd=1.12u as=0.156p ps=1.12u w=0.6u l=0.5u
X31 a_1172_n60# a_1072_n104# a_968_n60# w_n3386_n190# pfet_03v3 ad=0.156p pd=1.12u as=0.156p ps=1.12u w=0.6u l=0.5u
.ends

.subckt CM_32_C SD0_1 G1_2 G1_1 SD2_0 G0_1 G0_2 VSS VDD G3_1 G3_2
Xnmos_3p3_9NPLV7_0 G3_1 G3_2 G3_1 G3_1 VSS G3_2 VSS G3_1 G3_1 VSS G3_2 G3_1 VSS G3_1
+ G3_2 G3_1 G3_2 G3_1 G3_2 G3_1 G3_1 G3_1 G3_2 VSS G3_2 G3_1 G3_1 G3_1 G3_2 G3_1 G3_2
+ G3_1 G3_1 G3_1 G3_2 G3_2 G3_1 G3_2 G3_2 G3_1 VSS G3_2 G3_2 G3_2 G3_1 G3_2 G3_2 VSS
+ G3_1 G3_1 G3_2 G3_1 G3_2 G3_1 G3_2 G3_1 G3_2 G3_1 G3_1 G3_2 G3_1 G3_2 G3_1 G3_1
+ VSS VSS nmos_3p3_9NPLV7
Xnmos_3p3_9NPLV7_1 SD0_1 VSS SD0_1 SD0_1 G1_1 G0_1 G1_1 SD0_1 SD0_1 G1_1 G0_1 G0_2
+ G1_1 SD0_1 G0_1 SD0_1 VSS G0_2 G0_1 G0_2 SD0_1 SD0_1 VSS G1_1 G0_1 G0_2 G0_2 G0_2
+ VSS SD0_1 G0_1 SD0_1 G0_2 G0_2 G0_1 G0_1 G0_2 VSS G0_1 SD0_1 G1_1 G0_1 G0_1 G0_1
+ G0_2 G0_1 G0_1 G1_1 SD0_1 G0_2 G0_1 G0_2 G0_1 G0_2 VSS SD0_1 VSS G0_2 SD0_1 VSS
+ G0_2 VSS SD0_1 G0_2 G1_1 VSS nmos_3p3_9NPLV7
Xnmos_3p3_9NPLV7_2 SD0_1 G1_1 SD0_1 SD0_1 VSS G0_2 VSS SD0_1 SD0_1 VSS G0_2 G0_1 VSS
+ SD0_1 G0_2 SD0_1 G1_1 G0_1 G0_2 G0_1 SD0_1 SD0_1 G1_1 VSS G0_2 G0_1 G0_1 G0_1 G1_1
+ SD0_1 G0_2 SD0_1 G0_1 G0_1 G0_2 G0_2 G0_1 G1_1 G0_2 SD0_1 VSS G0_2 G0_2 G0_2 G0_1
+ G0_2 G0_2 VSS SD0_1 G0_1 G0_2 G0_1 G0_2 G0_1 G1_1 SD0_1 G1_1 G0_1 SD0_1 G1_1 G0_1
+ G1_1 SD0_1 G0_1 VSS VSS nmos_3p3_9NPLV7
Xnmos_3p3_9NPLV7_3 G3_1 VSS G3_1 G3_1 G3_2 G3_1 G3_2 G3_1 G3_1 G3_2 G3_1 G3_2 G3_2
+ G3_1 G3_1 G3_1 VSS G3_2 G3_1 G3_2 G3_1 G3_1 VSS G3_2 G3_1 G3_2 G3_2 G3_2 VSS G3_1
+ G3_1 G3_1 G3_2 G3_2 G3_1 G3_1 G3_2 VSS G3_1 G3_1 G3_2 G3_1 G3_1 G3_1 G3_2 G3_1 G3_1
+ G3_2 G3_1 G3_2 G3_1 G3_2 G3_1 G3_2 VSS G3_1 VSS G3_2 G3_1 VSS G3_2 VSS G3_1 G3_2
+ G3_2 VSS nmos_3p3_9NPLV7
Xpmos_3p3_DVR9E7_0 G1_2 VDD G1_2 G1_2 G1_1 G1_2 VDD G1_1 G1_2 G1_2 G1_1 G1_2 G1_1
+ G1_1 G1_2 G1_2 G1_2 VDD G1_1 G1_2 G1_1 G1_2 G1_2 VDD G1_1 G1_2 G1_1 G1_1 G1_1 VDD
+ G1_2 G1_2 G1_2 G1_1 G1_1 G1_2 G1_2 G1_1 VDD G1_2 G1_2 G1_1 G1_2 G1_2 G1_2 G1_1 G1_2
+ G1_2 G1_1 G1_2 G1_1 G1_2 G1_1 G1_2 G1_1 VDD G1_2 VDD G1_1 G1_2 VDD G1_1 VDD G1_2
+ G1_1 G1_1 pmos_3p3_DVR9E7
Xpmos_3p3_DVR9E7_1 SD2_0 VDD SD2_0 SD2_0 G3_2 G1_2 VDD G3_2 SD2_0 SD2_0 G3_2 G1_2
+ G1_1 G3_2 SD2_0 G1_2 SD2_0 VDD G1_1 G1_2 G1_1 SD2_0 SD2_0 VDD G3_2 G1_2 G1_1 G1_1
+ G1_1 VDD SD2_0 G1_2 SD2_0 G1_1 G1_1 G1_2 G1_2 G1_1 VDD G1_2 SD2_0 G3_2 G1_2 G1_2
+ G1_2 G1_1 G1_2 G1_2 G3_2 SD2_0 G1_1 G1_2 G1_1 G1_2 G1_1 VDD SD2_0 VDD G1_1 SD2_0
+ VDD G1_1 VDD SD2_0 G1_1 G3_2 pmos_3p3_DVR9E7
Xpmos_3p3_DVR9E7_2 G1_2 G1_1 G1_2 G1_2 VDD G1_1 VDD VDD G1_2 G1_2 VDD G1_1 G1_2 VDD
+ G1_2 G1_1 G1_2 G1_1 G1_2 G1_1 G1_2 G1_2 G1_2 G1_1 VDD G1_1 G1_2 G1_2 G1_2 G1_1 G1_2
+ G1_1 G1_2 G1_2 G1_2 G1_1 G1_1 G1_2 G1_1 G1_1 G1_2 VDD G1_1 G1_1 G1_1 G1_2 G1_1 G1_1
+ VDD G1_2 G1_2 G1_1 G1_2 G1_1 G1_2 G1_1 G1_2 G1_1 G1_2 G1_2 G1_1 G1_2 G1_1 G1_2 G1_2
+ VDD pmos_3p3_DVR9E7
Xpmos_3p3_DVR9E7_3 SD2_0 G3_2 SD2_0 SD2_0 VDD G1_1 VDD VDD SD2_0 SD2_0 VDD G1_1 G1_2
+ VDD SD2_0 G1_1 SD2_0 G3_2 G1_2 G1_1 G1_2 SD2_0 SD2_0 G3_2 VDD G1_1 G1_2 G1_2 G1_2
+ G3_2 SD2_0 G1_1 SD2_0 G1_2 G1_2 G1_1 G1_1 G1_2 G3_2 G1_1 SD2_0 VDD G1_1 G1_1 G1_1
+ G1_2 G1_1 G1_1 VDD SD2_0 G1_2 G1_1 G1_2 G1_1 G1_2 G3_2 SD2_0 G3_2 G1_2 SD2_0 G3_2
+ G1_2 G3_2 SD2_0 G1_2 VDD pmos_3p3_DVR9E7
.ends

.subckt pmos_3p3_MGRWPS a_n52_n50# a_n196_n50# a_52_n94# a_108_n50# a_n108_n94# w_n282_n180#
X0 a_108_n50# a_52_n94# a_n52_n50# w_n282_n180# pfet_03v3 ad=0.22p pd=1.88u as=0.13p ps=1.02u w=0.5u l=0.28u
X1 a_n52_n50# a_n108_n94# a_n196_n50# w_n282_n180# pfet_03v3 ad=0.13p pd=1.02u as=0.22p ps=1.88u w=0.5u l=0.28u
.ends

.subckt OR A B VSS VDD OUT SD1 SD2
Xnmos_3p3_H9QVWA_0 VSS SD2 A VSS nmos_3p3_H9QVWA
Xpmos_3p3_MGRWPS_0 SD2 SD1 A SD1 A VDD pmos_3p3_MGRWPS
Xnmos_3p3_H9QVWA_1 VSS SD2 B VSS nmos_3p3_H9QVWA
Xpmos_3p3_MGRWPS_1 SD1 VDD B VDD B VDD pmos_3p3_MGRWPS
XInverter_0 VDD VSS SD2 OUT Inverter
.ends

.subckt AND VDD VSS OUT A B SD1 SD2
XInverter_0 VDD VSS SD2 OUT Inverter
Xpmos_3p3_M8RWPS_0 B VDD SD2 VDD pmos_3p3_M8RWPS
Xpmos_3p3_M8RWPS_1 A VDD VDD SD2 pmos_3p3_M8RWPS
Xnmos_3p3_HZS5UA_0 A VSS SD1 VSS nmos_3p3_HZS5UA
Xnmos_3p3_HZS5UA_1 B SD1 SD2 VSS nmos_3p3_HZS5UA
.ends

.subckt therm_Dec B1 VDD D1 D2 D4 D3 D5 D6 D7 B3 B2 VSS
XOR_4 B1 B2 VSS VDD OR_3/B OR_4/SD1 OR_4/SD2 OR
XINV_BUFF_0 AND_0/OUT INV_BUFF_0/SD1 D1 VDD VSS INV_BUFF
XINV_BUFF_1 AND_2/OUT INV_BUFF_1/SD1 D2 VDD VSS INV_BUFF
XINV_BUFF_2 AND_3/OUT INV_BUFF_2/SD1 D3 VDD VSS INV_BUFF
XINV_BUFF_3 B1 INV_BUFF_3/SD1 D4 VDD VSS INV_BUFF
XINV_BUFF_4 OR_1/OUT INV_BUFF_4/SD1 D5 VDD VSS INV_BUFF
XAND_0 VDD VSS AND_0/OUT B3 AND_0/B AND_0/SD1 AND_0/SD2 AND
XINV_BUFF_5 OR_2/OUT INV_BUFF_5/SD1 D6 VDD VSS INV_BUFF
XAND_1 VDD VSS AND_0/B B1 B2 AND_1/SD1 AND_1/SD2 AND
XINV_BUFF_6 OR_3/OUT INV_BUFF_6/SD1 D7 VDD VSS INV_BUFF
XAND_2 VDD VSS AND_2/OUT B1 B2 AND_2/SD1 AND_2/SD2 AND
XAND_3 VDD VSS AND_3/OUT B1 AND_3/B AND_3/SD1 AND_3/SD2 AND
XAND_4 VDD VSS OR_1/B B2 B3 AND_4/SD1 AND_4/SD2 AND
XOR_0 B2 B3 VSS VDD AND_3/B OR_0/SD1 OR_0/SD2 OR
XOR_1 B1 OR_1/B VSS VDD OR_1/OUT OR_1/SD1 OR_1/SD2 OR
XOR_2 B1 B2 VSS VDD OR_2/OUT OR_2/SD1 OR_2/SD2 OR
XOR_3 B3 OR_3/B VSS VDD OR_3/OUT OR_3/SD1 OR_3/SD2 OR
.ends

.subckt nmos_3p3_MGEA3B a_n138_n60# a_50_n60# a_n50_n104# VSUBS
X0 a_50_n60# a_n50_n104# a_n138_n60# VSUBS nfet_03v3 ad=0.264p pd=2.08u as=0.264p ps=2.08u w=0.6u l=0.5u
.ends

.subckt nmos_3p3_MGEAJ7 a_50_n30# a_n50_n74# a_n142_n36# VSUBS
X0 a_50_n30# a_n50_n74# a_n142_n36# VSUBS nfet_03v3 ad=0.16p pd=1.64u as=0.16p ps=1.64u w=0.3u l=0.5u
.ends

.subckt pmos_3p3_M8LTNG a_n120_n36# a_28_n22# a_n28_n66# w_n206_n159#
X0 a_28_n22# a_n28_n66# a_n120_n36# w_n206_n159# pfet_03v3 ad=0.152p pd=1.64u as=0.152p ps=1.64u w=0.22u l=0.28u
.ends

.subckt nmos_3p3_DDNVWA a_n120_n36# a_28_n22# a_n28_n66# VSUBS
X0 a_28_n22# a_n28_n66# a_n120_n36# VSUBS nfet_03v3 ad=0.152p pd=1.64u as=0.152p ps=1.64u w=0.22u l=0.28u
.ends

.subckt Balance_Inverter VDD VSS OUT OUT_B VIN
Xpmos_3p3_M8LTNG_0 OUT VDD OUT_B VDD pmos_3p3_M8LTNG
Xpmos_3p3_M8LTNG_1 VDD OUT_B OUT VDD pmos_3p3_M8LTNG
XInverter_0 VDD VSS VIN Inverter_0/OUT Inverter
Xnmos_3p3_DDNVWA_0 OUT VSS Inverter_0/OUT VSS nmos_3p3_DDNVWA
Xnmos_3p3_DDNVWA_1 VSS OUT_B VIN VSS nmos_3p3_DDNVWA
.ends

.subckt CM_32 VSS G0_2 G0_1 VDD G1_2 G1_1 SD2_0 G3_2 G3_1 SD0_1
Xnmos_3p3_9NPLV7_0 G3_1 G3_2 G3_1 G3_1 VSS G3_2 VSS G3_1 G3_1 VSS G3_2 G3_1 VSS G3_1
+ G3_2 G3_1 G3_2 G3_1 G3_2 G3_1 G3_1 G3_1 G3_2 VSS G3_2 G3_1 G3_1 G3_1 G3_2 G3_1 G3_2
+ G3_1 G3_1 G3_1 G3_2 G3_2 G3_1 G3_2 G3_2 G3_1 VSS G3_2 G3_2 G3_2 G3_1 G3_2 G3_2 VSS
+ G3_1 G3_1 G3_2 G3_1 G3_2 G3_1 G3_2 G3_1 G3_2 G3_1 G3_1 G3_2 G3_1 G3_2 G3_1 G3_1
+ VSS VSS nmos_3p3_9NPLV7
Xnmos_3p3_9NPLV7_1 SD0_1 VSS SD0_1 SD0_1 G1_1 G0_1 G1_1 SD0_1 SD0_1 G1_1 G0_1 G0_2
+ G1_1 SD0_1 G0_1 SD0_1 VSS G0_2 G0_1 G0_2 SD0_1 SD0_1 VSS G1_1 G0_1 G0_2 G0_2 G0_2
+ VSS SD0_1 G0_1 SD0_1 G0_2 G0_2 G0_1 G0_1 G0_2 VSS G0_1 SD0_1 G1_1 G0_1 G0_1 G0_1
+ G0_2 G0_1 G0_1 G1_1 SD0_1 G0_2 G0_1 G0_2 G0_1 G0_2 VSS SD0_1 VSS G0_2 SD0_1 VSS
+ G0_2 VSS SD0_1 G0_2 G1_1 VSS nmos_3p3_9NPLV7
Xnmos_3p3_9NPLV7_2 SD0_1 G1_1 SD0_1 SD0_1 VSS G0_2 VSS SD0_1 SD0_1 VSS G0_2 G0_1 VSS
+ SD0_1 G0_2 SD0_1 G1_1 G0_1 G0_2 G0_1 SD0_1 SD0_1 G1_1 VSS G0_2 G0_1 G0_1 G0_1 G1_1
+ SD0_1 G0_2 SD0_1 G0_1 G0_1 G0_2 G0_2 G0_1 G1_1 G0_2 SD0_1 VSS G0_2 G0_2 G0_2 G0_1
+ G0_2 G0_2 VSS SD0_1 G0_1 G0_2 G0_1 G0_2 G0_1 G1_1 SD0_1 G1_1 G0_1 SD0_1 G1_1 G0_1
+ G1_1 SD0_1 G0_1 VSS VSS nmos_3p3_9NPLV7
Xnmos_3p3_9NPLV7_3 G3_1 VSS G3_1 G3_1 G3_2 G3_1 G3_2 G3_1 G3_1 G3_2 G3_1 G3_2 G3_2
+ G3_1 G3_1 G3_1 VSS G3_2 G3_1 G3_2 G3_1 G3_1 VSS G3_2 G3_1 G3_2 G3_2 G3_2 VSS G3_1
+ G3_1 G3_1 G3_2 G3_2 G3_1 G3_1 G3_2 VSS G3_1 G3_1 G3_2 G3_1 G3_1 G3_1 G3_2 G3_1 G3_1
+ G3_2 G3_1 G3_2 G3_1 G3_2 G3_1 G3_2 VSS G3_1 VSS G3_2 G3_1 VSS G3_2 VSS G3_1 G3_2
+ G3_2 VSS nmos_3p3_9NPLV7
Xpmos_3p3_DVR9E7_0 G1_2 VDD G1_2 G1_2 G1_1 G1_2 VDD G1_1 G1_2 G1_2 G1_1 G1_2 G1_1
+ G1_1 G1_2 G1_2 G1_2 VDD G1_1 G1_2 G1_1 G1_2 G1_2 VDD G1_1 G1_2 G1_1 G1_1 G1_1 VDD
+ G1_2 G1_2 G1_2 G1_1 G1_1 G1_2 G1_2 G1_1 VDD G1_2 G1_2 G1_1 G1_2 G1_2 G1_2 G1_1 G1_2
+ G1_2 G1_1 G1_2 G1_1 G1_2 G1_1 G1_2 G1_1 VDD G1_2 VDD G1_1 G1_2 VDD G1_1 VDD G1_2
+ G1_1 G1_1 pmos_3p3_DVR9E7
Xpmos_3p3_DVR9E7_1 SD2_0 VDD SD2_0 SD2_0 G3_2 G1_2 VDD G3_2 SD2_0 SD2_0 G3_2 G1_2
+ G1_1 G3_2 SD2_0 G1_2 SD2_0 VDD G1_1 G1_2 G1_1 SD2_0 SD2_0 VDD G3_2 G1_2 G1_1 G1_1
+ G1_1 VDD SD2_0 G1_2 SD2_0 G1_1 G1_1 G1_2 G1_2 G1_1 VDD G1_2 SD2_0 G3_2 G1_2 G1_2
+ G1_2 G1_1 G1_2 G1_2 G3_2 SD2_0 G1_1 G1_2 G1_1 G1_2 G1_1 VDD SD2_0 VDD G1_1 SD2_0
+ VDD G1_1 VDD SD2_0 G1_1 G3_2 pmos_3p3_DVR9E7
Xpmos_3p3_DVR9E7_2 G1_2 G1_1 G1_2 G1_2 VDD G1_1 VDD VDD G1_2 G1_2 VDD G1_1 G1_2 VDD
+ G1_2 G1_1 G1_2 G1_1 G1_2 G1_1 G1_2 G1_2 G1_2 G1_1 VDD G1_1 G1_2 G1_2 G1_2 G1_1 G1_2
+ G1_1 G1_2 G1_2 G1_2 G1_1 G1_1 G1_2 G1_1 G1_1 G1_2 VDD G1_1 G1_1 G1_1 G1_2 G1_1 G1_1
+ VDD G1_2 G1_2 G1_1 G1_2 G1_1 G1_2 G1_1 G1_2 G1_1 G1_2 G1_2 G1_1 G1_2 G1_1 G1_2 G1_2
+ VDD pmos_3p3_DVR9E7
Xpmos_3p3_DVR9E7_3 SD2_0 G3_2 SD2_0 SD2_0 VDD G1_1 VDD VDD SD2_0 SD2_0 VDD G1_1 G1_2
+ VDD SD2_0 G1_1 SD2_0 G3_2 G1_2 G1_1 G1_2 SD2_0 SD2_0 G3_2 VDD G1_1 G1_2 G1_2 G1_2
+ G3_2 SD2_0 G1_1 SD2_0 G1_2 G1_2 G1_1 G1_1 G1_2 G3_2 G1_1 SD2_0 VDD G1_1 G1_1 G1_1
+ G1_2 G1_1 G1_1 VDD SD2_0 G1_2 G1_1 G1_2 G1_1 G1_2 G3_2 SD2_0 G3_2 G1_2 SD2_0 G3_2
+ G1_2 G3_2 SD2_0 G1_2 VDD pmos_3p3_DVR9E7
.ends

.subckt nmos_3p3_ECASTA a_n52_n200# a_n212_n200# a_108_n200# a_52_n244# a_n108_n244#
+ a_212_n244# a_268_n200# a_n268_n244# a_n356_n200# VSUBS
X0 a_108_n200# a_52_n244# a_n52_n200# VSUBS nfet_03v3 ad=0.52p pd=2.52u as=0.52p ps=2.52u w=2u l=0.28u
X1 a_268_n200# a_212_n244# a_108_n200# VSUBS nfet_03v3 ad=0.88p pd=4.88u as=0.52p ps=2.52u w=2u l=0.28u
X2 a_n212_n200# a_n268_n244# a_n356_n200# VSUBS nfet_03v3 ad=0.52p pd=2.52u as=0.88p ps=4.88u w=2u l=0.28u
X3 a_n52_n200# a_n108_n244# a_n212_n200# VSUBS nfet_03v3 ad=0.52p pd=2.52u as=0.52p ps=2.52u w=2u l=0.28u
.ends

.subckt nmos_3p3_AEBEG7 a_2988_n200# a_1228_n200# a_n52_n200# a_n852_n200# a_n428_n244#
+ a_n1012_n200# a_532_n244# a_n2772_n200# a_n1388_n244# a_588_n200# a_n1812_n200#
+ a_2292_n244# a_1332_n244# a_n2348_n244# a_2348_n200# a_1388_n200# a_n212_n200# a_n588_n244#
+ a_n1172_n200# a_n3092_n200# a_692_n244# a_n2132_n200# a_n1972_n200# a_n2932_n200#
+ a_1492_n244# a_n1548_n244# a_748_n200# a_2452_n244# a_n2508_n244# a_n372_n200# a_2508_n200#
+ a_1548_n200# a_n748_n244# a_n2292_n200# a_108_n200# a_n1332_n200# a_852_n244# a_52_n244#
+ a_n2668_n244# a_908_n200# a_2612_n244# a_1652_n244# a_n1708_n244# a_2668_n200# a_1708_n200#
+ a_n532_n200# a_n108_n244# a_212_n244# a_268_n200# a_n1492_n200# a_n2452_n200# a_n908_n244#
+ a_n1068_n244# a_n2028_n244# a_1012_n244# a_n1868_n244# a_1068_n200# a_2772_n244#
+ a_n2828_n244# a_2028_n200# a_1812_n244# a_2828_n200# a_1868_n200# a_n692_n200# a_n268_n244#
+ a_372_n244# a_n2188_n244# a_n1652_n200# a_n2612_n200# a_3092_n244# a_1172_n244#
+ a_n1228_n244# a_n3148_n244# a_428_n200# a_2132_n244# a_n2988_n244# a_3148_n200#
+ a_2188_n200# a_n3236_n200# a_2932_n244# a_1972_n244# VSUBS
X0 a_1548_n200# a_1492_n244# a_1388_n200# VSUBS nfet_03v3 ad=0.52p pd=2.52u as=0.52p ps=2.52u w=2u l=0.28u
X1 a_n2612_n200# a_n2668_n244# a_n2772_n200# VSUBS nfet_03v3 ad=0.52p pd=2.52u as=0.52p ps=2.52u w=2u l=0.28u
X2 a_588_n200# a_532_n244# a_428_n200# VSUBS nfet_03v3 ad=0.52p pd=2.52u as=0.52p ps=2.52u w=2u l=0.28u