* NGSPICE file created from CM_MSB_flat.ext - technology: gf180mcuC

.subckt CM_MSB_flat IM_T IM VSS OUT SD
X0 SD IM.t0 VSS.t127 VSS.t77 nfet_03v3 ad=0.156p pd=1.12u as=0.156p ps=1.12u w=0.6u l=1.2u
X1 VSS IM.t1 SD.t79 VSS.t91 nfet_03v3 ad=0.156p pd=1.12u as=0.156p ps=1.12u w=0.6u l=1.2u
X2 SD IM_T.t0 OUT.t63 VSS.t22 nfet_03v3 ad=0.156p pd=1.12u as=0.156p ps=1.12u w=0.6u l=1.2u
X3 OUT IM_T.t1 SD.t81 VSS.t12 nfet_03v3 ad=0.156p pd=1.12u as=0.156p ps=1.12u w=0.6u l=1.2u
X4 VSS IM.t2 SD.t78 VSS.t59 nfet_03v3 ad=0.156p pd=1.12u as=0.156p ps=1.12u w=0.6u l=1.2u
X5 OUT IM_T.t2 SD.t11 VSS.t10 nfet_03v3 ad=0.264p pd=2.08u as=0.156p ps=1.12u w=0.6u l=1.2u
X6 SD IM.t3 VSS.t122 VSS.t3 nfet_03v3 ad=0.156p pd=1.12u as=0.156p ps=1.12u w=0.6u l=1.2u
X7 OUT IM_T.t3 SD.t104 VSS.t87 nfet_03v3 ad=0.156p pd=1.12u as=0.156p ps=1.12u w=0.6u l=1.2u
X8 SD IM.t4 VSS.t121 VSS.t11 nfet_03v3 ad=0.156p pd=1.12u as=0.264p ps=2.08u w=0.6u l=1.2u
X9 VSS IM.t5 SD.t75 VSS.t51 nfet_03v3 ad=0.156p pd=1.12u as=0.156p ps=1.12u w=0.6u l=1.2u
X10 VSS IM.t6 SD.t74 VSS.t75 nfet_03v3 ad=0.156p pd=1.12u as=0.156p ps=1.12u w=0.6u l=1.2u
X11 SD IM_T.t4 OUT.t59 VSS.t35 nfet_03v3 ad=0.156p pd=1.12u as=0.156p ps=1.12u w=0.6u l=1.2u
X12 OUT IM_T.t5 SD.t88 VSS.t32 nfet_03v3 ad=0.156p pd=1.12u as=0.156p ps=1.12u w=0.6u l=1.2u
X13 OUT IM_T.t6 SD.t92 VSS.t0 nfet_03v3 ad=0.156p pd=1.12u as=0.156p ps=1.12u w=0.6u l=1.2u
X14 VSS IM.t7 SD.t73 VSS.t6 nfet_03v3 ad=0.156p pd=1.12u as=0.156p ps=1.12u w=0.6u l=1.2u
X15 SD IM_T.t7 OUT.t56 VSS.t11 nfet_03v3 ad=0.156p pd=1.12u as=0.264p ps=2.08u w=0.6u l=1.2u
X16 SD IM.t8 VSS.t114 VSS.t8 nfet_03v3 ad=0.156p pd=1.12u as=0.156p ps=1.12u w=0.6u l=1.2u
X17 SD IM_T.t8 OUT.t55 VSS.t38 nfet_03v3 ad=0.156p pd=1.12u as=0.156p ps=1.12u w=0.6u l=1.2u
X18 SD IM_T.t9 OUT.t54 VSS.t77 nfet_03v3 ad=0.156p pd=1.12u as=0.156p ps=1.12u w=0.6u l=1.2u
X19 SD IM_T.t10 OUT.t53 VSS.t41 nfet_03v3 ad=0.156p pd=1.12u as=0.156p ps=1.12u w=0.6u l=1.2u
X20 OUT IM_T.t11 SD.t93 VSS.t32 nfet_03v3 ad=0.156p pd=1.12u as=0.156p ps=1.12u w=0.6u l=1.2u
X21 SD IM_T.t12 OUT.t51 VSS.t13 nfet_03v3 ad=0.156p pd=1.12u as=0.156p ps=1.12u w=0.6u l=1.2u
X22 VSS IM.t9 SD.t71 VSS.t62 nfet_03v3 ad=0.156p pd=1.12u as=0.156p ps=1.12u w=0.6u l=1.2u
X23 VSS IM.t10 SD.t70 VSS.t7 nfet_03v3 ad=0.156p pd=1.12u as=0.156p ps=1.12u w=0.6u l=1.2u
X24 VSS IM.t11 SD.t69 VSS.t0 nfet_03v3 ad=0.156p pd=1.12u as=0.156p ps=1.12u w=0.6u l=1.2u
X25 SD IM_T.t13 OUT.t50 VSS.t25 nfet_03v3 ad=0.156p pd=1.12u as=0.156p ps=1.12u w=0.6u l=1.2u
X26 SD IM_T.t14 OUT.t49 VSS.t29 nfet_03v3 ad=0.156p pd=1.12u as=0.156p ps=1.12u w=0.6u l=1.2u
X27 OUT IM_T.t15 SD.t122 VSS.t27 nfet_03v3 ad=0.156p pd=1.12u as=0.156p ps=1.12u w=0.6u l=1.2u
X28 OUT IM_T.t16 SD.t115 VSS.t20 nfet_03v3 ad=0.156p pd=1.12u as=0.156p ps=1.12u w=0.6u l=1.2u
X29 VSS IM.t12 SD.t68 VSS.t1 nfet_03v3 ad=0.156p pd=1.12u as=0.156p ps=1.12u w=0.6u l=1.2u
X30 OUT IM_T.t17 SD.t125 VSS.t75 nfet_03v3 ad=0.156p pd=1.12u as=0.156p ps=1.12u w=0.6u l=1.2u
X31 SD IM_T.t18 OUT.t45 VSS.t16 nfet_03v3 ad=0.156p pd=1.12u as=0.156p ps=1.12u w=0.6u l=1.2u
X32 VSS IM.t13 SD.t67 VSS.t4 nfet_03v3 ad=0.156p pd=1.12u as=0.156p ps=1.12u w=0.6u l=1.2u
X33 OUT IM_T.t19 SD.t97 VSS.t51 nfet_03v3 ad=0.156p pd=1.12u as=0.156p ps=1.12u w=0.6u l=1.2u
X34 SD IM.t14 VSS.t103 VSS.t2 nfet_03v3 ad=0.156p pd=1.12u as=0.156p ps=1.12u w=0.6u l=1.2u
X35 SD IM_T.t20 OUT.t43 VSS.t9 nfet_03v3 ad=0.156p pd=1.12u as=0.156p ps=1.12u w=0.6u l=1.2u
X36 VSS IM.t15 SD.t65 VSS.t10 nfet_03v3 ad=0.264p pd=2.08u as=0.156p ps=1.12u w=0.6u l=1.2u
X37 VSS IM.t16 SD.t64 VSS.t91 nfet_03v3 ad=0.156p pd=1.12u as=0.156p ps=1.12u w=0.6u l=1.2u
X38 SD IM_T.t21 OUT.t42 VSS.t14 nfet_03v3 ad=0.156p pd=1.12u as=0.156p ps=1.12u w=0.6u l=1.2u
X39 SD IM.t17 VSS.t90 VSS.t5 nfet_03v3 ad=0.156p pd=1.12u as=0.156p ps=1.12u w=0.6u l=1.2u
X40 SD IM_T.t22 OUT.t41 VSS.t16 nfet_03v3 ad=0.156p pd=1.12u as=0.156p ps=1.12u w=0.6u l=1.2u
X41 VSS IM.t18 SD.t62 VSS.t12 nfet_03v3 ad=0.156p pd=1.12u as=0.156p ps=1.12u w=0.6u l=1.2u
X42 OUT IM_T.t23 SD.t113 VSS.t91 nfet_03v3 ad=0.156p pd=1.12u as=0.156p ps=1.12u w=0.6u l=1.2u
X43 VSS IM.t19 SD.t61 VSS.t10 nfet_03v3 ad=0.264p pd=2.08u as=0.156p ps=1.12u w=0.6u l=1.2u
X44 OUT IM_T.t24 SD.t96 VSS.t59 nfet_03v3 ad=0.156p pd=1.12u as=0.156p ps=1.12u w=0.6u l=1.2u
X45 SD IM.t20 VSS.t89 VSS.t41 nfet_03v3 ad=0.156p pd=1.12u as=0.156p ps=1.12u w=0.6u l=1.2u
X46 VSS IM.t21 SD.t59 VSS.t87 nfet_03v3 ad=0.156p pd=1.12u as=0.156p ps=1.12u w=0.6u l=1.2u
X47 OUT IM_T.t25 SD.t118 VSS.t51 nfet_03v3 ad=0.156p pd=1.12u as=0.156p ps=1.12u w=0.6u l=1.2u
X48 VSS IM.t22 SD.t58 VSS.t87 nfet_03v3 ad=0.156p pd=1.12u as=0.156p ps=1.12u w=0.6u l=1.2u
X49 SD IM_T.t26 OUT.t37 VSS.t8 nfet_03v3 ad=0.156p pd=1.12u as=0.156p ps=1.12u w=0.6u l=1.2u
X50 OUT IM_T.t27 SD.t4 VSS.t4 nfet_03v3 ad=0.156p pd=1.12u as=0.156p ps=1.12u w=0.6u l=1.2u
X51 SD IM.t23 VSS.t86 VSS.t35 nfet_03v3 ad=0.156p pd=1.12u as=0.156p ps=1.12u w=0.6u l=1.2u
X52 SD IM.t24 VSS.t85 VSS.t11 nfet_03v3 ad=0.156p pd=1.12u as=0.264p ps=2.08u w=0.6u l=1.2u
X53 SD IM_T.t28 OUT.t35 VSS.t8 nfet_03v3 ad=0.156p pd=1.12u as=0.156p ps=1.12u w=0.6u l=1.2u
X54 SD IM.t25 VSS.t84 VSS.t38 nfet_03v3 ad=0.156p pd=1.12u as=0.156p ps=1.12u w=0.6u l=1.2u
X55 OUT IM_T.t29 SD.t8 VSS.t7 nfet_03v3 ad=0.156p pd=1.12u as=0.156p ps=1.12u w=0.6u l=1.2u
X56 SD IM_T.t30 OUT.t33 VSS.t22 nfet_03v3 ad=0.156p pd=1.12u as=0.156p ps=1.12u w=0.6u l=1.2u
X57 SD IM.t26 VSS.t78 VSS.t77 nfet_03v3 ad=0.156p pd=1.12u as=0.156p ps=1.12u w=0.6u l=1.2u
X58 SD IM.t27 VSS.t83 VSS.t22 nfet_03v3 ad=0.156p pd=1.12u as=0.156p ps=1.12u w=0.6u l=1.2u
X59 VSS IM.t28 SD.t52 VSS.t32 nfet_03v3 ad=0.156p pd=1.12u as=0.156p ps=1.12u w=0.6u l=1.2u
X60 SD IM_T.t31 OUT.t32 VSS.t3 nfet_03v3 ad=0.156p pd=1.12u as=0.156p ps=1.12u w=0.6u l=1.2u
X61 OUT IM_T.t32 SD.t82 VSS.t62 nfet_03v3 ad=0.156p pd=1.12u as=0.156p ps=1.12u w=0.6u l=1.2u
X62 SD IM.t29 VSS.t80 VSS.t3 nfet_03v3 ad=0.156p pd=1.12u as=0.156p ps=1.12u w=0.6u l=1.2u
X63 OUT IM_T.t33 SD.t103 VSS.t20 nfet_03v3 ad=0.156p pd=1.12u as=0.156p ps=1.12u w=0.6u l=1.2u
X64 VSS IM.t30 SD.t50 VSS.t75 nfet_03v3 ad=0.156p pd=1.12u as=0.156p ps=1.12u w=0.6u l=1.2u
X65 SD IM_T.t34 OUT.t29 VSS.t14 nfet_03v3 ad=0.156p pd=1.12u as=0.156p ps=1.12u w=0.6u l=1.2u
X66 VSS IM.t31 SD.t49 VSS.t6 nfet_03v3 ad=0.156p pd=1.12u as=0.156p ps=1.12u w=0.6u l=1.2u
X67 OUT IM_T.t35 SD.t0 VSS.t0 nfet_03v3 ad=0.156p pd=1.12u as=0.156p ps=1.12u w=0.6u l=1.2u
X68 VSS IM.t32 SD.t48 VSS.t20 nfet_03v3 ad=0.156p pd=1.12u as=0.156p ps=1.12u w=0.6u l=1.2u
X69 OUT IM_T.t36 SD.t1 VSS.t1 nfet_03v3 ad=0.156p pd=1.12u as=0.156p ps=1.12u w=0.6u l=1.2u
X70 SD IM_T.t37 OUT.t26 VSS.t41 nfet_03v3 ad=0.156p pd=1.12u as=0.156p ps=1.12u w=0.6u l=1.2u
X71 SD IM_T.t38 OUT.t25 VSS.t13 nfet_03v3 ad=0.156p pd=1.12u as=0.156p ps=1.12u w=0.6u l=1.2u
X72 SD IM.t33 VSS.t70 VSS.t5 nfet_03v3 ad=0.156p pd=1.12u as=0.156p ps=1.12u w=0.6u l=1.2u
X73 SD IM_T.t39 OUT.t24 VSS.t25 nfet_03v3 ad=0.156p pd=1.12u as=0.156p ps=1.12u w=0.6u l=1.2u
X74 SD IM.t34 VSS.t69 VSS.t2 nfet_03v3 ad=0.156p pd=1.12u as=0.156p ps=1.12u w=0.6u l=1.2u
X75 OUT IM_T.t40 SD.t99 VSS.t7 nfet_03v3 ad=0.156p pd=1.12u as=0.156p ps=1.12u w=0.6u l=1.2u
X76 SD IM_T.t41 OUT.t22 VSS.t2 nfet_03v3 ad=0.156p pd=1.12u as=0.156p ps=1.12u w=0.6u l=1.2u
X77 SD IM.t35 VSS.t68 VSS.t9 nfet_03v3 ad=0.156p pd=1.12u as=0.156p ps=1.12u w=0.6u l=1.2u
X78 SD IM.t36 VSS.t67 VSS.t14 nfet_03v3 ad=0.156p pd=1.12u as=0.156p ps=1.12u w=0.6u l=1.2u
X79 OUT IM_T.t42 SD.t121 VSS.t59 nfet_03v3 ad=0.156p pd=1.12u as=0.156p ps=1.12u w=0.6u l=1.2u
X80 SD IM_T.t43 OUT.t20 VSS.t5 nfet_03v3 ad=0.156p pd=1.12u as=0.156p ps=1.12u w=0.6u l=1.2u
X81 SD IM.t37 VSS.t66 VSS.t16 nfet_03v3 ad=0.156p pd=1.12u as=0.156p ps=1.12u w=0.6u l=1.2u
X82 SD IM.t38 VSS.t65 VSS.t29 nfet_03v3 ad=0.156p pd=1.12u as=0.156p ps=1.12u w=0.6u l=1.2u
X83 OUT IM_T.t44 SD.t85 VSS.t27 nfet_03v3 ad=0.156p pd=1.12u as=0.156p ps=1.12u w=0.6u l=1.2u
X84 SD IM_T.t45 OUT.t18 VSS.t29 nfet_03v3 ad=0.156p pd=1.12u as=0.156p ps=1.12u w=0.6u l=1.2u
X85 VSS IM.t39 SD.t41 VSS.t62 nfet_03v3 ad=0.156p pd=1.12u as=0.156p ps=1.12u w=0.6u l=1.2u
X86 OUT IM_T.t46 SD.t102 VSS.t10 nfet_03v3 ad=0.264p pd=2.08u as=0.156p ps=1.12u w=0.6u l=1.2u
X87 OUT IM_T.t47 SD.t13 VSS.t12 nfet_03v3 ad=0.156p pd=1.12u as=0.156p ps=1.12u w=0.6u l=1.2u
X88 VSS IM.t40 SD.t40 VSS.t59 nfet_03v3 ad=0.156p pd=1.12u as=0.156p ps=1.12u w=0.6u l=1.2u
X89 OUT IM_T.t48 SD.t98 VSS.t87 nfet_03v3 ad=0.156p pd=1.12u as=0.156p ps=1.12u w=0.6u l=1.2u
X90 VSS IM.t41 SD.t39 VSS.t51 nfet_03v3 ad=0.156p pd=1.12u as=0.156p ps=1.12u w=0.6u l=1.2u
X91 VSS IM.t42 SD.t38 VSS.t4 nfet_03v3 ad=0.156p pd=1.12u as=0.156p ps=1.12u w=0.6u l=1.2u
X92 VSS IM.t43 SD.t37 VSS.t12 nfet_03v3 ad=0.156p pd=1.12u as=0.156p ps=1.12u w=0.6u l=1.2u
X93 SD IM.t44 VSS.t50 VSS.t8 nfet_03v3 ad=0.156p pd=1.12u as=0.156p ps=1.12u w=0.6u l=1.2u
X94 SD IM_T.t49 OUT.t14 VSS.t11 nfet_03v3 ad=0.156p pd=1.12u as=0.264p ps=2.08u w=0.6u l=1.2u
X95 VSS IM.t45 SD.t35 VSS.t27 nfet_03v3 ad=0.156p pd=1.12u as=0.156p ps=1.12u w=0.6u l=1.2u
X96 SD IM_T.t50 OUT.t13 VSS.t77 nfet_03v3 ad=0.156p pd=1.12u as=0.156p ps=1.12u w=0.6u l=1.2u
X97 SD IM.t46 VSS.t23 VSS.t22 nfet_03v3 ad=0.156p pd=1.12u as=0.156p ps=1.12u w=0.6u l=1.2u
X98 VSS IM.t47 SD.t33 VSS.t7 nfet_03v3 ad=0.156p pd=1.12u as=0.156p ps=1.12u w=0.6u l=1.2u
X99 OUT IM_T.t51 SD.t101 VSS.t91 nfet_03v3 ad=0.156p pd=1.12u as=0.156p ps=1.12u w=0.6u l=1.2u
X100 SD IM_T.t52 OUT.t11 VSS.t3 nfet_03v3 ad=0.156p pd=1.12u as=0.156p ps=1.12u w=0.6u l=1.2u
X101 OUT IM_T.t53 SD.t84 VSS.t75 nfet_03v3 ad=0.156p pd=1.12u as=0.156p ps=1.12u w=0.6u l=1.2u
X102 VSS IM.t48 SD.t32 VSS.t0 nfet_03v3 ad=0.156p pd=1.12u as=0.156p ps=1.12u w=0.6u l=1.2u
X103 OUT IM_T.t54 SD.t108 VSS.t6 nfet_03v3 ad=0.156p pd=1.12u as=0.156p ps=1.12u w=0.6u l=1.2u
X104 VSS IM.t49 SD.t31 VSS.t1 nfet_03v3 ad=0.156p pd=1.12u as=0.156p ps=1.12u w=0.6u l=1.2u
X105 SD IM.t50 VSS.t36 VSS.t35 nfet_03v3 ad=0.156p pd=1.12u as=0.156p ps=1.12u w=0.6u l=1.2u
X106 SD IM.t51 VSS.t42 VSS.t41 nfet_03v3 ad=0.156p pd=1.12u as=0.156p ps=1.12u w=0.6u l=1.2u
X107 SD IM_T.t55 OUT.t8 VSS.t38 nfet_03v3 ad=0.156p pd=1.12u as=0.156p ps=1.12u w=0.6u l=1.2u
X108 SD IM.t52 VSS.t40 VSS.t13 nfet_03v3 ad=0.156p pd=1.12u as=0.156p ps=1.12u w=0.6u l=1.2u
X109 SD IM.t53 VSS.t39 VSS.t38 nfet_03v3 ad=0.156p pd=1.12u as=0.156p ps=1.12u w=0.6u l=1.2u
X110 SD IM.t54 VSS.t34 VSS.t25 nfet_03v3 ad=0.156p pd=1.12u as=0.156p ps=1.12u w=0.6u l=1.2u
X111 VSS IM.t55 SD.t25 VSS.t32 nfet_03v3 ad=0.156p pd=1.12u as=0.156p ps=1.12u w=0.6u l=1.2u
X112 OUT IM_T.t56 SD.t90 VSS.t62 nfet_03v3 ad=0.156p pd=1.12u as=0.156p ps=1.12u w=0.6u l=1.2u
X113 SD IM_T.t57 OUT.t6 VSS.t9 nfet_03v3 ad=0.156p pd=1.12u as=0.156p ps=1.12u w=0.6u l=1.2u
X114 SD IM.t56 VSS.t30 VSS.t29 nfet_03v3 ad=0.156p pd=1.12u as=0.156p ps=1.12u w=0.6u l=1.2u
X115 VSS IM.t57 SD.t23 VSS.t27 nfet_03v3 ad=0.156p pd=1.12u as=0.156p ps=1.12u w=0.6u l=1.2u
X116 OUT IM_T.t58 SD.t6 VSS.t6 nfet_03v3 ad=0.156p pd=1.12u as=0.156p ps=1.12u w=0.6u l=1.2u
X117 SD IM.t58 VSS.t26 VSS.t25 nfet_03v3 ad=0.156p pd=1.12u as=0.156p ps=1.12u w=0.6u l=1.2u
X118 OUT IM_T.t59 SD.t7 VSS.t1 nfet_03v3 ad=0.156p pd=1.12u as=0.156p ps=1.12u w=0.6u l=1.2u
X119 VSS IM.t59 SD.t21 VSS.t20 nfet_03v3 ad=0.156p pd=1.12u as=0.156p ps=1.12u w=0.6u l=1.2u
X120 SD IM.t60 VSS.t19 VSS.t13 nfet_03v3 ad=0.156p pd=1.12u as=0.156p ps=1.12u w=0.6u l=1.2u
X121 OUT IM_T.t60 SD.t16 VSS.t4 nfet_03v3 ad=0.156p pd=1.12u as=0.156p ps=1.12u w=0.6u l=1.2u
X122 SD IM_T.t61 OUT.t2 VSS.t35 nfet_03v3 ad=0.156p pd=1.12u as=0.156p ps=1.12u w=0.6u l=1.2u
X123 SD IM.t61 VSS.t18 VSS.t9 nfet_03v3 ad=0.156p pd=1.12u as=0.156p ps=1.12u w=0.6u l=1.2u
X124 SD IM_T.t62 OUT.t1 VSS.t2 nfet_03v3 ad=0.156p pd=1.12u as=0.156p ps=1.12u w=0.6u l=1.2u
X125 SD IM.t62 VSS.t17 VSS.t16 nfet_03v3 ad=0.156p pd=1.12u as=0.156p ps=1.12u w=0.6u l=1.2u
X126 SD IM_T.t63 OUT.t0 VSS.t5 nfet_03v3 ad=0.156p pd=1.12u as=0.156p ps=1.12u w=0.6u l=1.2u
X127 SD IM.t63 VSS.t15 VSS.t14 nfet_03v3 ad=0.156p pd=1.12u as=0.156p ps=1.12u w=0.6u l=1.2u
R0 IM.n64 IM.n30 42.4777
R1 IM.n63 IM.n61 41.09
R2 IM.n0 IM.t19 33.0683
R3 IM.n31 IM.t15 33.0683
R4 IM.n3 IM.n2 32.0551
R5 IM.n7 IM.n6 32.0551
R6 IM.n11 IM.n10 32.0551
R7 IM.n15 IM.n14 32.0551
R8 IM.n19 IM.n18 32.0551
R9 IM.n23 IM.n22 32.0551
R10 IM.n27 IM.n26 32.0551
R11 IM.n34 IM.n33 32.0551
R12 IM.n38 IM.n37 32.0551
R13 IM.n42 IM.n41 32.0551
R14 IM.n46 IM.n45 32.0551
R15 IM.n50 IM.n49 32.0551
R16 IM.n54 IM.n53 32.0551
R17 IM.n58 IM.n57 32.0551
R18 IM.n4 IM.n3 31.2433
R19 IM.n8 IM.n7 31.2433
R20 IM.n12 IM.n11 31.2433
R21 IM.n16 IM.n15 31.2433
R22 IM.n20 IM.n19 31.2433
R23 IM.n24 IM.n23 31.2433
R24 IM.n28 IM.n27 31.2433
R25 IM.n35 IM.n34 31.2433
R26 IM.n39 IM.n38 31.2433
R27 IM.n43 IM.n42 31.2433
R28 IM.n47 IM.n46 31.2433
R29 IM.n51 IM.n50 31.2433
R30 IM.n55 IM.n54 31.2433
R31 IM.n59 IM.n58 31.2433
R32 IM.n2 IM.n1 31.2433
R33 IM.n6 IM.n5 31.2433
R34 IM.n10 IM.n9 31.2433
R35 IM.n14 IM.n13 31.2433
R36 IM.n18 IM.n17 31.2433
R37 IM.n22 IM.n21 31.2433
R38 IM.n26 IM.n25 31.2433
R39 IM.n30 IM.n29 31.2433
R40 IM.n33 IM.n32 31.2433
R41 IM.n37 IM.n36 31.2433
R42 IM.n41 IM.n40 31.2433
R43 IM.n45 IM.n44 31.2433
R44 IM.n49 IM.n48 31.2433
R45 IM.n53 IM.n52 31.2433
R46 IM.n57 IM.n56 31.2433
R47 IM.n61 IM.n60 31.2433
R48 IM.n1 IM.n0 30.4315
R49 IM.n5 IM.n4 30.4315
R50 IM.n9 IM.n8 30.4315
R51 IM.n13 IM.n12 30.4315
R52 IM.n17 IM.n16 30.4315
R53 IM.n21 IM.n20 30.4315
R54 IM.n25 IM.n24 30.4315
R55 IM.n29 IM.n28 30.4315
R56 IM.n32 IM.n31 30.4315
R57 IM.n36 IM.n35 30.4315
R58 IM.n40 IM.n39 30.4315
R59 IM.n44 IM.n43 30.4315
R60 IM.n48 IM.n47 30.4315
R61 IM.n52 IM.n51 30.4315
R62 IM.n56 IM.n55 30.4315
R63 IM.n60 IM.n59 30.4315
R64 IM.n64 IM.n63 2.2505
R65 IM.n0 IM.t63 1.8255
R66 IM.n1 IM.t59 1.8255
R67 IM.n2 IM.t52 1.8255
R68 IM.n3 IM.t48 1.8255
R69 IM.n4 IM.t26 1.8255
R70 IM.n5 IM.t2 1.8255
R71 IM.n6 IM.t14 1.8255
R72 IM.n7 IM.t12 1.8255
R73 IM.n8 IM.t50 1.8255
R74 IM.n9 IM.t30 1.8255
R75 IM.n10 IM.t46 1.8255
R76 IM.n11 IM.t18 1.8255
R77 IM.n12 IM.t61 1.8255
R78 IM.n13 IM.t55 1.8255
R79 IM.n14 IM.t51 1.8255
R80 IM.n15 IM.t1 1.8255
R81 IM.n16 IM.t29 1.8255
R82 IM.n17 IM.t42 1.8255
R83 IM.n18 IM.t56 1.8255
R84 IM.n19 IM.t9 1.8255
R85 IM.n20 IM.t53 1.8255
R86 IM.n21 IM.t10 1.8255
R87 IM.n22 IM.t17 1.8255
R88 IM.n23 IM.t21 1.8255
R89 IM.n24 IM.t8 1.8255
R90 IM.n25 IM.t31 1.8255
R91 IM.n26 IM.t54 1.8255
R92 IM.n27 IM.t57 1.8255
R93 IM.n28 IM.t62 1.8255
R94 IM.n29 IM.t5 1.8255
R95 IM.n30 IM.t24 1.8255
R96 IM.n31 IM.t36 1.8255
R97 IM.n32 IM.t32 1.8255
R98 IM.n33 IM.t60 1.8255
R99 IM.n34 IM.t11 1.8255
R100 IM.n35 IM.t0 1.8255
R101 IM.n36 IM.t40 1.8255
R102 IM.n37 IM.t34 1.8255
R103 IM.n38 IM.t49 1.8255
R104 IM.n39 IM.t23 1.8255
R105 IM.n40 IM.t6 1.8255
R106 IM.n41 IM.t27 1.8255
R107 IM.n42 IM.t43 1.8255
R108 IM.n43 IM.t35 1.8255
R109 IM.n44 IM.t28 1.8255
R110 IM.n45 IM.t20 1.8255
R111 IM.n46 IM.t16 1.8255
R112 IM.n47 IM.t3 1.8255
R113 IM.n48 IM.t13 1.8255
R114 IM.n49 IM.t38 1.8255
R115 IM.n50 IM.t39 1.8255
R116 IM.n51 IM.t25 1.8255
R117 IM.n52 IM.t47 1.8255
R118 IM.n53 IM.t33 1.8255
R119 IM.n54 IM.t22 1.8255
R120 IM.n55 IM.t44 1.8255
R121 IM.n56 IM.t7 1.8255
R122 IM.n57 IM.t58 1.8255
R123 IM.n58 IM.t45 1.8255
R124 IM.n59 IM.t37 1.8255
R125 IM.n60 IM.t41 1.8255
R126 IM.n61 IM.t4 1.8255
R127 IM IM.n64 0.005
R128 IM.n63 IM.n62 0.00360345
R129 VSS.n162 VSS.t27 135.689
R130 VSS.n268 VSS.t2 133.079
R131 VSS.n147 VSS.t62 133.079
R132 VSS.n132 VSS.t12 130.47
R133 VSS.n292 VSS.t41 130.47
R134 VSS.n117 VSS.t0 127.861
R135 VSS.n316 VSS.t5 127.861
R136 VSS.n341 VSS.t11 125.251
R137 VSS.n253 VSS.t20 93.9387
R138 VSS.n156 VSS.t8 93.9387
R139 VSS.n277 VSS.t75 91.3293
R140 VSS.n141 VSS.t3 91.3293
R141 VSS.n126 VSS.t35 88.7199
R142 VSS.n301 VSS.t4 88.7199
R143 VSS.n111 VSS.t14 86.1105
R144 VSS.n325 VSS.t6 86.1105
R145 VSS.n165 VSS.t51 54.7978
R146 VSS.n261 VSS.t77 52.1884
R147 VSS.n150 VSS.t7 52.1884
R148 VSS.n285 VSS.t9 49.579
R149 VSS.n135 VSS.t32 49.579
R150 VSS.n120 VSS.t59 46.9696
R151 VSS.n309 VSS.t38 46.9696
R152 VSS.n336 VSS.t16 44.3602
R153 VSS.n243 VSS.t10 13.0475
R154 VSS.n159 VSS.t25 13.0475
R155 VSS.n270 VSS.t1 10.4381
R156 VSS.n144 VSS.t29 10.4381
R157 VSS.n129 VSS.t22 7.82868
R158 VSS.n294 VSS.t91 7.82868
R159 VSS.n353 VSS.t85 6.37407
R160 VSS.n167 VSS.t121 6.36851
R161 VSS.n24 VSS.n23 6.35417
R162 VSS.n108 VSS.n107 6.35325
R163 VSS.n342 VSS.n341 5.28001
R164 VSS.n114 VSS.t13 5.21929
R165 VSS.n318 VSS.t87 5.21929
R166 VSS.n360 VSS.n359 5.2005
R167 VSS.n333 VSS.n332 5.2005
R168 VSS.n102 VSS.n101 5.2005
R169 VSS.n221 VSS.n218 5.2005
R170 VSS.n168 VSS.n166 5.2005
R171 VSS.n169 VSS.n165 5.2005
R172 VSS.n170 VSS.n164 5.2005
R173 VSS.n171 VSS.n163 5.2005
R174 VSS.n172 VSS.n162 5.2005
R175 VSS.n174 VSS.n159 5.2005
R176 VSS.n175 VSS.n158 5.2005
R177 VSS.n176 VSS.n157 5.2005
R178 VSS.n177 VSS.n156 5.2005
R179 VSS.n178 VSS.n155 5.2005
R180 VSS.n180 VSS.n152 5.2005
R181 VSS.n181 VSS.n151 5.2005
R182 VSS.n182 VSS.n150 5.2005
R183 VSS.n183 VSS.n149 5.2005
R184 VSS.n184 VSS.n148 5.2005
R185 VSS.n185 VSS.n147 5.2005
R186 VSS.n187 VSS.n144 5.2005
R187 VSS.n188 VSS.n143 5.2005
R188 VSS.n189 VSS.n142 5.2005
R189 VSS.n190 VSS.n141 5.2005
R190 VSS.n191 VSS.n140 5.2005
R191 VSS.n193 VSS.n137 5.2005
R192 VSS.n194 VSS.n136 5.2005
R193 VSS.n195 VSS.n135 5.2005
R194 VSS.n196 VSS.n134 5.2005
R195 VSS.n197 VSS.n133 5.2005
R196 VSS.n198 VSS.n132 5.2005
R197 VSS.n200 VSS.n129 5.2005
R198 VSS.n201 VSS.n128 5.2005
R199 VSS.n202 VSS.n127 5.2005
R200 VSS.n203 VSS.n126 5.2005
R201 VSS.n204 VSS.n125 5.2005
R202 VSS.n206 VSS.n122 5.2005
R203 VSS.n207 VSS.n121 5.2005
R204 VSS.n208 VSS.n120 5.2005
R205 VSS.n209 VSS.n119 5.2005
R206 VSS.n210 VSS.n118 5.2005
R207 VSS.n211 VSS.n117 5.2005
R208 VSS.n213 VSS.n114 5.2005
R209 VSS.n214 VSS.n113 5.2005
R210 VSS.n215 VSS.n112 5.2005
R211 VSS.n216 VSS.n111 5.2005
R212 VSS.n246 VSS.n242 5.2005
R213 VSS.n17 VSS.n15 5.2005
R214 VSS.n246 VSS.n241 5.2005
R215 VSS.n246 VSS.n245 5.2005
R216 VSS.n249 VSS.n248 5.2005
R217 VSS.n251 VSS.n250 5.2005
R218 VSS.n254 VSS.n253 5.2005
R219 VSS.n256 VSS.n255 5.2005
R220 VSS.n258 VSS.n257 5.2005
R221 VSS.n260 VSS.n259 5.2005
R222 VSS.n262 VSS.n261 5.2005
R223 VSS.n265 VSS.n264 5.2005
R224 VSS.n267 VSS.n266 5.2005
R225 VSS.n269 VSS.n268 5.2005
R226 VSS.n271 VSS.n270 5.2005
R227 VSS.n273 VSS.n272 5.2005
R228 VSS.n275 VSS.n274 5.2005
R229 VSS.n278 VSS.n277 5.2005
R230 VSS.n280 VSS.n279 5.2005
R231 VSS.n282 VSS.n281 5.2005
R232 VSS.n284 VSS.n283 5.2005
R233 VSS.n286 VSS.n285 5.2005
R234 VSS.n289 VSS.n288 5.2005
R235 VSS.n291 VSS.n290 5.2005
R236 VSS.n293 VSS.n292 5.2005
R237 VSS.n295 VSS.n294 5.2005
R238 VSS.n297 VSS.n296 5.2005
R239 VSS.n299 VSS.n298 5.2005
R240 VSS.n302 VSS.n301 5.2005
R241 VSS.n304 VSS.n303 5.2005
R242 VSS.n306 VSS.n305 5.2005
R243 VSS.n308 VSS.n307 5.2005
R244 VSS.n310 VSS.n309 5.2005
R245 VSS.n313 VSS.n312 5.2005
R246 VSS.n315 VSS.n314 5.2005
R247 VSS.n317 VSS.n316 5.2005
R248 VSS.n319 VSS.n318 5.2005
R249 VSS.n321 VSS.n320 5.2005
R250 VSS.n323 VSS.n322 5.2005
R251 VSS.n326 VSS.n325 5.2005
R252 VSS.n334 VSS.n333 5.2005
R253 VSS.n346 VSS.n335 5.2005
R254 VSS.n345 VSS.n336 5.2005
R255 VSS.n343 VSS.n339 5.2005
R256 VSS.n342 VSS.n340 5.2005
R257 VSS.n221 VSS.n220 4.5005
R258 VSS.n240 VSS.n17 4.5005
R259 VSS.n17 VSS.n16 4.5005
R260 VSS.n240 VSS.n239 4.5005
R261 VSS.n94 VSS.n33 3.62007
R262 VSS.n86 VSS.n37 3.62007
R263 VSS.n79 VSS.n41 3.62007
R264 VSS.n71 VSS.n45 3.62007
R265 VSS.n64 VSS.n49 3.62007
R266 VSS.n56 VSS.n53 3.62007
R267 VSS.n350 VSS.n349 3.62007
R268 VSS.n212 VSS.n116 3.62007
R269 VSS.n205 VSS.n124 3.62007
R270 VSS.n199 VSS.n131 3.62007
R271 VSS.n192 VSS.n139 3.62007
R272 VSS.n186 VSS.n146 3.62007
R273 VSS.n179 VSS.n154 3.62007
R274 VSS.n173 VSS.n161 3.62007
R275 VSS.n356 VSS.n352 3.56724
R276 VSS.n330 VSS.n328 3.56724
R277 VSS.n60 VSS.n51 3.56724
R278 VSS.n67 VSS.n47 3.56724
R279 VSS.n75 VSS.n43 3.56724
R280 VSS.n82 VSS.n39 3.56724
R281 VSS.n90 VSS.n35 3.56724
R282 VSS.n97 VSS.n31 3.56724
R283 VSS.n344 VSS.n338 3.56724
R284 VSS.n324 VSS.n1 3.56724
R285 VSS.n311 VSS.n3 3.56724
R286 VSS.n300 VSS.n5 3.56724
R287 VSS.n287 VSS.n7 3.56724
R288 VSS.n276 VSS.n9 3.56724
R289 VSS.n263 VSS.n11 3.56724
R290 VSS.n252 VSS.n13 3.56724
R291 VSS.n33 VSS.t40 2.7305
R292 VSS.n33 VSS.n32 2.7305
R293 VSS.n37 VSS.t103 2.7305
R294 VSS.n37 VSS.n36 2.7305
R295 VSS.n41 VSS.t23 2.7305
R296 VSS.n41 VSS.n40 2.7305
R297 VSS.n45 VSS.t42 2.7305
R298 VSS.n45 VSS.n44 2.7305
R299 VSS.n49 VSS.t30 2.7305
R300 VSS.n49 VSS.n48 2.7305
R301 VSS.n53 VSS.t90 2.7305
R302 VSS.n53 VSS.n52 2.7305
R303 VSS.n349 VSS.t34 2.7305
R304 VSS.n349 VSS.n348 2.7305
R305 VSS.n352 VSS.t66 2.7305
R306 VSS.n352 VSS.n351 2.7305
R307 VSS.n328 VSS.t50 2.7305
R308 VSS.n328 VSS.n327 2.7305
R309 VSS.n51 VSS.t84 2.7305
R310 VSS.n51 VSS.n50 2.7305
R311 VSS.n47 VSS.t122 2.7305
R312 VSS.n47 VSS.n46 2.7305
R313 VSS.n43 VSS.t68 2.7305
R314 VSS.n43 VSS.n42 2.7305
R315 VSS.n39 VSS.t86 2.7305
R316 VSS.n39 VSS.n38 2.7305
R317 VSS.n35 VSS.t127 2.7305
R318 VSS.n35 VSS.n34 2.7305
R319 VSS.n31 VSS.t67 2.7305
R320 VSS.n31 VSS.n30 2.7305
R321 VSS.n116 VSS.t19 2.7305
R322 VSS.n116 VSS.n115 2.7305
R323 VSS.n124 VSS.t69 2.7305
R324 VSS.n124 VSS.n123 2.7305
R325 VSS.n131 VSS.t83 2.7305
R326 VSS.n131 VSS.n130 2.7305
R327 VSS.n139 VSS.t89 2.7305
R328 VSS.n139 VSS.n138 2.7305
R329 VSS.n146 VSS.t65 2.7305
R330 VSS.n146 VSS.n145 2.7305
R331 VSS.n154 VSS.t70 2.7305
R332 VSS.n154 VSS.n153 2.7305
R333 VSS.n161 VSS.t26 2.7305
R334 VSS.n161 VSS.n160 2.7305
R335 VSS.n338 VSS.t17 2.7305
R336 VSS.n338 VSS.n337 2.7305
R337 VSS.n1 VSS.t114 2.7305
R338 VSS.n1 VSS.n0 2.7305
R339 VSS.n3 VSS.t39 2.7305
R340 VSS.n3 VSS.n2 2.7305
R341 VSS.n5 VSS.t80 2.7305
R342 VSS.n5 VSS.n4 2.7305
R343 VSS.n7 VSS.t18 2.7305
R344 VSS.n7 VSS.n6 2.7305
R345 VSS.n9 VSS.t36 2.7305
R346 VSS.n9 VSS.n8 2.7305
R347 VSS.n11 VSS.t78 2.7305
R348 VSS.n11 VSS.n10 2.7305
R349 VSS.n13 VSS.t15 2.7305
R350 VSS.n13 VSS.n12 2.7305
R351 VSS.n223 VSS.n222 2.60175
R352 VSS.n362 VSS.n361 2.6005
R353 VSS.n361 VSS.n360 2.6005
R354 VSS.n244 VSS.n243 2.39249
R355 VSS.n102 VSS.n29 2.39249
R356 VSS.n228 VSS.n108 2.2505
R357 VSS.n227 VSS.n226 2.2505
R358 VSS.n234 VSS.n24 2.2505
R359 VSS.n238 VSS.n237 2.25028
R360 VSS.n236 VSS.n235 2.2497
R361 VSS.n233 VSS.n106 2.24958
R362 VSS.n221 VSS.n219 1.92278
R363 VSS.n361 VSS.n347 1.63262
R364 VSS.n26 VSS.n25 1.56009
R365 VSS.n15 VSS.n14 1.3052
R366 VSS.n28 VSS.n27 1.23366
R367 VSS.n229 VSS.n228 1.01937
R368 VSS.n235 VSS.n234 0.514333
R369 VSS.n222 VSS.n221 0.424592
R370 VSS.n245 VSS.n244 0.41801
R371 VSS.n29 VSS.n28 0.41801
R372 VSS.n29 VSS.n26 0.41801
R373 VSS.n216 VSS.n215 0.0800053
R374 VSS.n215 VSS.n214 0.0800053
R375 VSS.n214 VSS.n213 0.0800053
R376 VSS.n211 VSS.n210 0.0800053
R377 VSS.n210 VSS.n209 0.0800053
R378 VSS.n209 VSS.n208 0.0800053
R379 VSS.n208 VSS.n207 0.0800053
R380 VSS.n207 VSS.n206 0.0800053
R381 VSS.n204 VSS.n203 0.0800053
R382 VSS.n203 VSS.n202 0.0800053
R383 VSS.n202 VSS.n201 0.0800053
R384 VSS.n201 VSS.n200 0.0800053
R385 VSS.n198 VSS.n197 0.0800053
R386 VSS.n197 VSS.n196 0.0800053
R387 VSS.n196 VSS.n195 0.0800053
R388 VSS.n195 VSS.n194 0.0800053
R389 VSS.n194 VSS.n193 0.0800053
R390 VSS.n191 VSS.n190 0.0800053
R391 VSS.n190 VSS.n189 0.0800053
R392 VSS.n189 VSS.n188 0.0800053
R393 VSS.n188 VSS.n187 0.0800053
R394 VSS.n185 VSS.n184 0.0800053
R395 VSS.n184 VSS.n183 0.0800053
R396 VSS.n183 VSS.n182 0.0800053
R397 VSS.n182 VSS.n181 0.0800053
R398 VSS.n181 VSS.n180 0.0800053
R399 VSS.n178 VSS.n177 0.0800053
R400 VSS.n177 VSS.n176 0.0800053
R401 VSS.n176 VSS.n175 0.0800053
R402 VSS.n175 VSS.n174 0.0800053
R403 VSS.n172 VSS.n171 0.0800053
R404 VSS.n171 VSS.n170 0.0800053
R405 VSS.n170 VSS.n169 0.0800053
R406 VSS.n169 VSS.n168 0.0800053
R407 VSS.n168 VSS.n167 0.0800053
R408 VSS.n251 VSS.n249 0.0800053
R409 VSS.n256 VSS.n254 0.0800053
R410 VSS.n258 VSS.n256 0.0800053
R411 VSS.n260 VSS.n258 0.0800053
R412 VSS.n262 VSS.n260 0.0800053
R413 VSS.n267 VSS.n265 0.0800053
R414 VSS.n269 VSS.n267 0.0800053
R415 VSS.n271 VSS.n269 0.0800053
R416 VSS.n273 VSS.n271 0.0800053
R417 VSS.n275 VSS.n273 0.0800053
R418 VSS.n280 VSS.n278 0.0800053
R419 VSS.n282 VSS.n280 0.0800053
R420 VSS.n284 VSS.n282 0.0800053
R421 VSS.n286 VSS.n284 0.0800053
R422 VSS.n291 VSS.n289 0.0800053
R423 VSS.n293 VSS.n291 0.0800053
R424 VSS.n295 VSS.n293 0.0800053
R425 VSS.n297 VSS.n295 0.0800053
R426 VSS.n299 VSS.n297 0.0800053
R427 VSS.n304 VSS.n302 0.0800053
R428 VSS.n306 VSS.n304 0.0800053
R429 VSS.n308 VSS.n306 0.0800053
R430 VSS.n310 VSS.n308 0.0800053
R431 VSS.n315 VSS.n313 0.0800053
R432 VSS.n317 VSS.n315 0.0800053
R433 VSS.n319 VSS.n317 0.0800053
R434 VSS.n321 VSS.n319 0.0800053
R435 VSS.n323 VSS.n321 0.0800053
R436 VSS.n334 VSS.n326 0.0800053
R437 VSS.n362 VSS.n346 0.0800053
R438 VSS.n346 VSS.n345 0.0800053
R439 VSS.n343 VSS.n342 0.0800053
R440 VSS.n99 VSS.n98 0.0794474
R441 VSS.n96 VSS.n95 0.0794474
R442 VSS.n93 VSS.n92 0.0794474
R443 VSS.n92 VSS.n91 0.0794474
R444 VSS.n89 VSS.n88 0.0794474
R445 VSS.n88 VSS.n87 0.0794474
R446 VSS.n85 VSS.n84 0.0794474
R447 VSS.n84 VSS.n83 0.0794474
R448 VSS.n81 VSS.n80 0.0794474
R449 VSS.n78 VSS.n77 0.0794474
R450 VSS.n77 VSS.n76 0.0794474
R451 VSS.n74 VSS.n73 0.0794474
R452 VSS.n73 VSS.n72 0.0794474
R453 VSS.n70 VSS.n69 0.0794474
R454 VSS.n69 VSS.n68 0.0794474
R455 VSS.n66 VSS.n65 0.0794474
R456 VSS.n63 VSS.n62 0.0794474
R457 VSS.n62 VSS.n61 0.0794474
R458 VSS.n59 VSS.n58 0.0794474
R459 VSS.n58 VSS.n57 0.0794474
R460 VSS.n55 VSS.n54 0.0794474
R461 VSS.n332 VSS.n331 0.0794474
R462 VSS.n359 VSS.n358 0.0794474
R463 VSS.n358 VSS.n357 0.0794474
R464 VSS.n355 VSS.n354 0.0794474
R465 VSS.n354 VSS.n353 0.0794474
R466 VSS.n254 VSS.n252 0.0780972
R467 VSS.n97 VSS.n96 0.0775526
R468 VSS.n278 VSS.n276 0.0774611
R469 VSS.n217 VSS.n216 0.0771431
R470 VSS.n82 VSS.n81 0.0769211
R471 VSS.n302 VSS.n300 0.0768251
R472 VSS.n67 VSS.n66 0.0762895
R473 VSS.n326 VSS.n324 0.076189
R474 VSS.n331 VSS.n330 0.0756579
R475 VSS.n249 VSS.n247 0.0739629
R476 VSS.n100 VSS.n99 0.0734474
R477 VSS VSS.n334 0.0711007
R478 VSS.n205 VSS.n204 0.0634682
R479 VSS.n65 VSS.n64 0.0630263
R480 VSS.n192 VSS.n191 0.0628322
R481 VSS.n80 VSS.n79 0.0623947
R482 VSS.n179 VSS.n178 0.0621961
R483 VSS.n95 VSS.n94 0.0617632
R484 VSS.n174 VSS.n173 0.0583799
R485 VSS.n187 VSS.n186 0.0577438
R486 VSS.n86 VSS.n85 0.0573421
R487 VSS.n200 VSS.n199 0.0571078
R488 VSS.n71 VSS.n70 0.0567105
R489 VSS.n213 VSS.n212 0.0564717
R490 VSS.n56 VSS.n55 0.056079
R491 VSS.n227 VSS.n110 0.0517376
R492 VSS.n345 VSS.n344 0.0443869
R493 VSS.n357 VSS.n356 0.0440789
R494 VSS.n311 VSS.n310 0.0437509
R495 VSS.n61 VSS.n60 0.0434474
R496 VSS.n287 VSS.n286 0.0431148
R497 VSS.n76 VSS.n75 0.0428158
R498 VSS.n263 VSS.n262 0.0424788
R499 VSS.n91 VSS.n90 0.0421842
R500 VSS.n265 VSS.n263 0.0380265
R501 VSS.n90 VSS.n89 0.0377632
R502 VSS.n289 VSS.n287 0.0373905
R503 VSS.n75 VSS.n74 0.0371316
R504 VSS.n313 VSS.n311 0.0367544
R505 VSS.n60 VSS.n59 0.0365
R506 VSS.n344 VSS.n343 0.0361184
R507 VSS.n356 VSS.n355 0.0358684
R508 VSS.n19 VSS.n18 0.0284859
R509 VSS.n232 VSS.n231 0.0249038
R510 VSS.n233 VSS.n232 0.0249038
R511 VSS.n212 VSS.n211 0.0240336
R512 VSS.n57 VSS.n56 0.0238684
R513 VSS.n199 VSS.n198 0.0233975
R514 VSS.n72 VSS.n71 0.0232368
R515 VSS.n186 VSS.n185 0.0227615
R516 VSS.n87 VSS.n86 0.0226053
R517 VSS.n173 VSS.n172 0.0221254
R518 VSS.n224 VSS.n223 0.0205353
R519 VSS.n180 VSS.n179 0.0183092
R520 VSS.n94 VSS.n93 0.0181842
R521 VSS.n193 VSS.n192 0.0176731
R522 VSS.n79 VSS.n78 0.0175526
R523 VSS.n246 VSS.n240 0.0173551
R524 VSS.n103 VSS.n102 0.0172368
R525 VSS.n206 VSS.n205 0.0170371
R526 VSS.n64 VSS.n63 0.0169211
R527 VSS.n359 VSS.n350 0.0162895
R528 VSS VSS.n362 0.00940459
R529 VSS.n226 VSS.n224 0.00686042
R530 VSS.n22 VSS.n21 0.00662565
R531 VSS.n231 VSS.n230 0.00662565
R532 VSS.n247 VSS.n246 0.0065424
R533 VSS.n102 VSS.n100 0.0065
R534 VSS.n236 VSS.n20 0.00622438
R535 VSS.n235 VSS.n22 0.00547495
R536 VSS.n230 VSS.n229 0.00547495
R537 VSS.n324 VSS.n323 0.00431625
R538 VSS.n330 VSS.n329 0.00428947
R539 VSS.n106 VSS.n105 0.0041561
R540 VSS.n106 VSS.n104 0.00384031
R541 VSS.n300 VSS.n299 0.00368021
R542 VSS.n68 VSS.n67 0.00365789
R543 VSS.n223 VSS.n217 0.00336219
R544 VSS.n104 VSS.n103 0.00334211
R545 VSS.n276 VSS.n275 0.00304417
R546 VSS.n83 VSS.n82 0.00302632
R547 VSS.n238 VSS.n236 0.00243064
R548 VSS.n240 VSS.n238 0.00243064
R549 VSS.n252 VSS.n251 0.00240813
R550 VSS.n98 VSS.n97 0.00239474
R551 VSS.n110 VSS.n109 0.00228218
R552 VSS.n226 VSS.n225 0.00227173
R553 VSS.n234 VSS.n233 0.000971204
R554 VSS.n228 VSS.n227 0.000945545
R555 VSS.n20 VSS.n19 0.000818021
R556 SD.n281 SD.n20 3.42994
R557 SD.n209 SD.n160 3.4191
R558 SD.n196 SD.n167 3.41548
R559 SD.n181 SD.n180 3.41548
R560 SD.n289 SD.n1 3.00983
R561 SD.n202 SD.n165 3.00364
R562 SD.n223 SD.n127 3.00306
R563 SD.n231 SD.n122 2.99802
R564 SD.n243 SD.n96 2.997
R565 SD.n217 SD.n129 2.99431
R566 SD.n193 SD.n172 2.99196
R567 SD.n254 SD.n86 2.99039
R568 SD.n251 SD.n91 2.99018
R569 SD.n278 SD.n32 2.98846
R570 SD.n260 SD.n84 2.98001
R571 SD.n267 SD.n55 2.97893
R572 SD.n30 SD.n29 2.93962
R573 SD.n158 SD.n157 2.93841
R574 SD.n170 SD.n169 2.93801
R575 SD.n178 SD.n177 2.93801
R576 SD.n283 SD.n282 2.90232
R577 SD.n24 SD.n23 2.90232
R578 SD.n184 SD.n183 2.90222
R579 SD.n137 SD.n136 2.90222
R580 SD.n274 SD.n273 2.90218
R581 SD.n38 SD.n37 2.90218
R582 SD.n263 SD.n262 2.90214
R583 SD.n84 SD.n83 2.90214
R584 SD.n46 SD.n45 2.90214
R585 SD.n81 SD.n80 2.90214
R586 SD.n55 SD.n54 2.87834
R587 SD.n52 SD.n51 2.87834
R588 SD.n270 SD.n269 2.87832
R589 SD.n34 SD.n33 2.87832
R590 SD.n32 SD.n31 2.85397
R591 SD.n43 SD.n42 2.85397
R592 SD.n86 SD.t90 2.7305
R593 SD.n86 SD.n85 2.7305
R594 SD.n256 SD.t71 2.7305
R595 SD.n256 SD.n255 2.7305
R596 SD.n91 SD.t38 2.7305
R597 SD.n91 SD.n90 2.7305
R598 SD.n248 SD.t16 2.7305
R599 SD.n248 SD.n247 2.7305
R600 SD.n240 SD.t79 2.7305
R601 SD.n240 SD.n239 2.7305
R602 SD.n234 SD.t93 2.7305
R603 SD.n234 SD.n233 2.7305
R604 SD.n129 SD.t50 2.7305
R605 SD.n129 SD.n128 2.7305
R606 SD.n219 SD.t84 2.7305
R607 SD.n219 SD.n218 2.7305
R608 SD.n213 SD.t68 2.7305
R609 SD.n213 SD.n212 2.7305
R610 SD.n205 SD.t96 2.7305
R611 SD.n205 SD.n204 2.7305
R612 SD.n167 SD.t0 2.7305