* NGSPICE file created from CM_64_flat.ext - technology: gf180mcuC

.subckt CM_64_flat VSS OUT IM_T IM
X0 VSS IM.t1 a_424_490.t111 VSS.t11 nfet_03v3 ad=0.156p pd=1.12u as=0.156p ps=1.12u w=0.6u l=1u
X1 OUT IM_T.t4 a_424_490.t19 VSS.t11 nfet_03v3 ad=0.156p pd=1.12u as=0.156p ps=1.12u w=0.6u l=1u
X2 OUT IM_T.t5 a_424_490.t20 VSS.t12 nfet_03v3 ad=0.156p pd=1.12u as=0.156p ps=1.12u w=0.6u l=1u
X3 VSS IM.t7 a_424_490.t105 VSS.t2 nfet_03v3 ad=0.264p pd=2.08u as=0.156p ps=1.12u w=0.6u l=1u
X4 OUT IM_T.t8 a_424_490.t24 VSS.t13 nfet_03v3 ad=0.156p pd=1.12u as=0.156p ps=1.12u w=0.6u l=1u
X5 VSS IM.t10 a_424_490.t102 VSS.t12 nfet_03v3 ad=0.156p pd=1.12u as=0.156p ps=1.12u w=0.6u l=1u
X6 OUT IM_T.t11 a_424_490.t27 VSS.t2 nfet_03v3 ad=0.264p pd=2.08u as=0.156p ps=1.12u w=0.6u l=1u
X7 OUT IM_T.t12 a_424_490.t13 VSS.t0 nfet_03v3 ad=0.156p pd=1.12u as=0.156p ps=1.12u w=0.6u l=1u
X8 OUT IM_T.t14 a_424_490.t45 VSS.t1 nfet_03v3 ad=0.156p pd=1.12u as=0.156p ps=1.12u w=0.6u l=1u
X9 VSS IM.t13 a_424_490.t99 VSS.t7 nfet_03v3 ad=0.156p pd=1.12u as=0.156p ps=1.12u w=0.6u l=1u
X10 VSS IM.t14 a_424_490.t98 VSS.t1 nfet_03v3 ad=0.156p pd=1.12u as=0.156p ps=1.12u w=0.6u l=1u
X11 VSS IM.t15 a_424_490.t97 VSS.t0 nfet_03v3 ad=0.156p pd=1.12u as=0.156p ps=1.12u w=0.6u l=1u
X12 VSS IM.t16 a_424_490.t96 VSS.t1 nfet_03v3 ad=0.156p pd=1.12u as=0.156p ps=1.12u w=0.6u l=1u
X13 OUT IM_T.t17 a_424_490.t41 VSS.t12 nfet_03v3 ad=0.156p pd=1.12u as=0.156p ps=1.12u w=0.6u l=1u
X14 OUT IM_T.t18 a_424_490.t42 VSS.t12 nfet_03v3 ad=0.156p pd=1.12u as=0.156p ps=1.12u w=0.6u l=1u
X15 OUT IM_T.t19 a_424_490.t0 VSS.t0 nfet_03v3 ad=0.156p pd=1.12u as=0.156p ps=1.12u w=0.6u l=1u
X16 VSS IM.t19 a_424_490.t93 VSS.t2 nfet_03v3 ad=0.264p pd=2.08u as=0.156p ps=1.12u w=0.6u l=1u
X17 VSS IM.t20 a_424_490.t92 VSS.t12 nfet_03v3 ad=0.156p pd=1.12u as=0.156p ps=1.12u w=0.6u l=1u
X18 VSS IM.t22 a_424_490.t90 VSS.t6 nfet_03v3 ad=0.156p pd=1.12u as=0.156p ps=1.12u w=0.6u l=1u
X19 OUT IM_T.t20 a_424_490.t1 VSS.t1 nfet_03v3 ad=0.156p pd=1.12u as=0.156p ps=1.12u w=0.6u l=1u
X20 VSS IM.t23 a_424_490.t89 VSS.t12 nfet_03v3 ad=0.156p pd=1.12u as=0.156p ps=1.12u w=0.6u l=1u
X21 OUT IM_T.t21 a_424_490.t47 VSS.t2 nfet_03v3 ad=0.264p pd=2.08u as=0.156p ps=1.12u w=0.6u l=1u
X22 VSS IM.t24 a_424_490.t88 VSS.t11 nfet_03v3 ad=0.156p pd=1.12u as=0.156p ps=1.12u w=0.6u l=1u
X23 VSS IM.t26 a_424_490.t86 VSS.t1 nfet_03v3 ad=0.156p pd=1.12u as=0.156p ps=1.12u w=0.6u l=1u
X24 OUT IM_T.t25 a_424_490.t6 VSS.t6 nfet_03v3 ad=0.156p pd=1.12u as=0.156p ps=1.12u w=0.6u l=1u
X25 VSS IM.t29 a_424_490.t83 VSS.t0 nfet_03v3 ad=0.156p pd=1.12u as=0.156p ps=1.12u w=0.6u l=1u
X26 OUT IM_T.t26 a_424_490.t7 VSS.t6 nfet_03v3 ad=0.156p pd=1.12u as=0.156p ps=1.12u w=0.6u l=1u
X27 VSS IM.t31 a_424_490.t81 VSS.t6 nfet_03v3 ad=0.156p pd=1.12u as=0.156p ps=1.12u w=0.6u l=1u
X28 VSS IM.t32 a_424_490.t80 VSS.t13 nfet_03v3 ad=0.156p pd=1.12u as=0.156p ps=1.12u w=0.6u l=1u
X29 OUT IM_T.t28 a_424_490.t43 VSS.t0 nfet_03v3 ad=0.156p pd=1.12u as=0.156p ps=1.12u w=0.6u l=1u
X30 VSS IM.t34 a_424_490.t78 VSS.t6 nfet_03v3 ad=0.156p pd=1.12u as=0.156p ps=1.12u w=0.6u l=1u
X31 OUT IM_T.t29 a_424_490.t44 VSS.t13 nfet_03v3 ad=0.156p pd=1.12u as=0.156p ps=1.12u w=0.6u l=1u
X32 OUT IM_T.t30 a_424_490.t37 VSS.t1 nfet_03v3 ad=0.156p pd=1.12u as=0.156p ps=1.12u w=0.6u l=1u
X33 OUT IM_T.t32 a_424_490.t28 VSS.t13 nfet_03v3 ad=0.156p pd=1.12u as=0.156p ps=1.12u w=0.6u l=1u
X34 OUT IM_T.t33 a_424_490.t29 VSS.t7 nfet_03v3 ad=0.156p pd=1.12u as=0.156p ps=1.12u w=0.6u l=1u
X35 VSS IM.t36 a_424_490.t76 VSS.t13 nfet_03v3 ad=0.156p pd=1.12u as=0.156p ps=1.12u w=0.6u l=1u
X36 VSS IM.t37 a_424_490.t75 VSS.t1 nfet_03v3 ad=0.156p pd=1.12u as=0.156p ps=1.12u w=0.6u l=1u
X37 OUT IM_T.t36 a_424_490.t116 VSS.t6 nfet_03v3 ad=0.156p pd=1.12u as=0.156p ps=1.12u w=0.6u l=1u
X38 VSS IM.t39 a_424_490.t73 VSS.t13 nfet_03v3 ad=0.156p pd=1.12u as=0.156p ps=1.12u w=0.6u l=1u
X39 OUT IM_T.t37 a_424_490.t117 VSS.t12 nfet_03v3 ad=0.156p pd=1.12u as=0.156p ps=1.12u w=0.6u l=1u
X40 VSS IM.t41 a_424_490.t71 VSS.t2 nfet_03v3 ad=0.264p pd=2.08u as=0.156p ps=1.12u w=0.6u l=1u
X41 VSS IM.t42 a_424_490.t70 VSS.t7 nfet_03v3 ad=0.156p pd=1.12u as=0.156p ps=1.12u w=0.6u l=1u
X42 VSS IM.t43 a_424_490.t69 VSS.t6 nfet_03v3 ad=0.156p pd=1.12u as=0.156p ps=1.12u w=0.6u l=1u
X43 OUT IM_T.t41 a_424_490.t35 VSS.t7 nfet_03v3 ad=0.156p pd=1.12u as=0.156p ps=1.12u w=0.6u l=1u
X44 OUT IM_T.t42 a_424_490.t36 VSS.t11 nfet_03v3 ad=0.156p pd=1.12u as=0.156p ps=1.12u w=0.6u l=1u
X45 VSS IM.t48 a_424_490.t64 VSS.t2 nfet_03v3 ad=0.264p pd=2.08u as=0.156p ps=1.12u w=0.6u l=1u
X46 OUT IM_T.t46 a_424_490.t22 VSS.t13 nfet_03v3 ad=0.156p pd=1.12u as=0.156p ps=1.12u w=0.6u l=1u
X47 VSS IM.t49 a_424_490.t63 VSS.t0 nfet_03v3 ad=0.156p pd=1.12u as=0.156p ps=1.12u w=0.6u l=1u
X48 VSS IM.t50 a_424_490.t62 VSS.t11 nfet_03v3 ad=0.156p pd=1.12u as=0.156p ps=1.12u w=0.6u l=1u
X49 VSS IM.t51 a_424_490.t61 VSS.t13 nfet_03v3 ad=0.156p pd=1.12u as=0.156p ps=1.12u w=0.6u l=1u
X50 OUT IM_T.t50 a_424_490.t2 VSS.t2 nfet_03v3 ad=0.264p pd=2.08u as=0.156p ps=1.12u w=0.6u l=1u
X51 VSS IM.t53 a_424_490.t59 VSS.t0 nfet_03v3 ad=0.156p pd=1.12u as=0.156p ps=1.12u w=0.6u l=1u
X52 VSS IM.t55 a_424_490.t57 VSS.t7 nfet_03v3 ad=0.156p pd=1.12u as=0.156p ps=1.12u w=0.6u l=1u
X53 OUT IM_T.t52 a_424_490.t31 VSS.t11 nfet_03v3 ad=0.156p pd=1.12u as=0.156p ps=1.12u w=0.6u l=1u
X54 VSS IM.t56 a_424_490.t56 VSS.t7 nfet_03v3 ad=0.156p pd=1.12u as=0.156p ps=1.12u w=0.6u l=1u
X55 OUT IM_T.t53 a_424_490.t113 VSS.t0 nfet_03v3 ad=0.156p pd=1.12u as=0.156p ps=1.12u w=0.6u l=1u
X56 OUT IM_T.t55 a_424_490.t12 VSS.t1 nfet_03v3 ad=0.156p pd=1.12u as=0.156p ps=1.12u w=0.6u l=1u
X57 OUT IM_T.t56 a_424_490.t9 VSS.t7 nfet_03v3 ad=0.156p pd=1.12u as=0.156p ps=1.12u w=0.6u l=1u
X58 OUT IM_T.t57 a_424_490.t124 VSS.t7 nfet_03v3 ad=0.156p pd=1.12u as=0.156p ps=1.12u w=0.6u l=1u
X59 VSS IM.t61 a_424_490.t51 VSS.t11 nfet_03v3 ad=0.156p pd=1.12u as=0.156p ps=1.12u w=0.6u l=1u
X60 OUT IM_T.t60 a_424_490.t8 VSS.t6 nfet_03v3 ad=0.156p pd=1.12u as=0.156p ps=1.12u w=0.6u l=1u
X61 OUT IM_T.t61 a_424_490.t125 VSS.t11 nfet_03v3 ad=0.156p pd=1.12u as=0.156p ps=1.12u w=0.6u l=1u
X62 VSS IM.t63 a_424_490.t49 VSS.t12 nfet_03v3 ad=0.156p pd=1.12u as=0.156p ps=1.12u w=0.6u l=1u
X63 OUT IM_T.t63 a_424_490.t34 VSS.t2 nfet_03v3 ad=0.264p pd=2.08u as=0.156p ps=1.12u w=0.6u l=1u
R0 IM IM.n60 39.4161
R1 IM.n15 IM.n14 39.4095
R2 IM.n62 IM.n30 39.4095
R3 IM.n61 IM.n45 39.4095
R4 IM.n0 IM.t19 32.6004
R5 IM.n16 IM.t41 32.6004
R6 IM.n31 IM.t7 32.6004
R7 IM.n46 IM.t48 32.6004
R8 IM.n1 IM.n0 30.5194
R9 IM.n5 IM.n4 30.5194
R10 IM.n9 IM.n8 30.5194
R11 IM.n13 IM.n12 30.5194
R12 IM.n17 IM.n16 30.5194
R13 IM.n21 IM.n20 30.5194
R14 IM.n25 IM.n24 30.5194
R15 IM.n29 IM.n28 30.5194
R16 IM.n32 IM.n31 30.5194
R17 IM.n36 IM.n35 30.5194
R18 IM.n40 IM.n39 30.5194
R19 IM.n44 IM.n43 30.5194
R20 IM.n47 IM.n46 30.5194
R21 IM.n51 IM.n50 30.5194
R22 IM.n55 IM.n54 30.5194
R23 IM.n59 IM.n58 30.5194
R24 IM.n2 IM.n1 30.2907
R25 IM.n4 IM.n3 30.2907
R26 IM.n6 IM.n5 30.2907
R27 IM.n8 IM.n7 30.2907
R28 IM.n10 IM.n9 30.2907
R29 IM.n12 IM.n11 30.2907
R30 IM.n14 IM.n13 30.2907
R31 IM.n18 IM.n17 30.2907
R32 IM.n20 IM.n19 30.2907
R33 IM.n22 IM.n21 30.2907
R34 IM.n24 IM.n23 30.2907
R35 IM.n26 IM.n25 30.2907
R36 IM.n28 IM.n27 30.2907
R37 IM.n30 IM.n29 30.2907
R38 IM.n33 IM.n32 30.2907
R39 IM.n35 IM.n34 30.2907
R40 IM.n37 IM.n36 30.2907
R41 IM.n39 IM.n38 30.2907
R42 IM.n41 IM.n40 30.2907
R43 IM.n43 IM.n42 30.2907
R44 IM.n45 IM.n44 30.2907
R45 IM.n48 IM.n47 30.2907
R46 IM.n50 IM.n49 30.2907
R47 IM.n52 IM.n51 30.2907
R48 IM.n54 IM.n53 30.2907
R49 IM.n56 IM.n55 30.2907
R50 IM.n58 IM.n57 30.2907
R51 IM.n60 IM.n59 30.2907
R52 IM.n3 IM.n2 30.0619
R53 IM.n7 IM.n6 30.0619
R54 IM.n11 IM.n10 30.0619
R55 IM.n19 IM.n18 30.0619
R56 IM.n23 IM.n22 30.0619
R57 IM.n27 IM.n26 30.0619
R58 IM.n34 IM.n33 30.0619
R59 IM.n38 IM.n37 30.0619
R60 IM.n42 IM.n41 30.0619
R61 IM.n49 IM.n48 30.0619
R62 IM.n53 IM.n52 30.0619
R63 IM.n57 IM.n56 30.0619
R64 IM.n0 IM.t8 2.1905
R65 IM.n1 IM.t37 2.1905
R66 IM.n2 IM.t62 2.1905
R67 IM.n3 IM.t29 2.1905
R68 IM.n4 IM.t17 2.1905
R69 IM.n5 IM.t43 2.1905
R70 IM.n6 IM.t9 2.1905
R71 IM.n7 IM.t56 2.1905
R72 IM.n8 IM.t27 2.1905
R73 IM.n9 IM.t51 2.1905
R74 IM.n10 IM.t35 2.1905
R75 IM.n11 IM.t1 2.1905
R76 IM.n12 IM.t54 2.1905
R77 IM.n13 IM.t23 2.1905
R78 IM.n14 IM.t2 2.1905
R79 IM.n16 IM.t47 2.1905
R80 IM.n17 IM.t16 2.1905
R81 IM.n18 IM.t18 2.1905
R82 IM.n19 IM.t49 2.1905
R83 IM.n20 IM.t60 2.1905
R84 IM.n21 IM.t22 2.1905
R85 IM.n22 IM.t30 2.1905
R86 IM.n23 IM.t13 2.1905
R87 IM.n24 IM.t4 2.1905
R88 IM.n25 IM.t32 2.1905
R89 IM.n26 IM.t57 2.1905
R90 IM.n27 IM.t24 2.1905
R91 IM.n28 IM.t33 2.1905
R92 IM.n29 IM.t63 2.1905
R93 IM.n30 IM.t25 2.1905
R94 IM.n31 IM.t59 2.1905
R95 IM.n32 IM.t26 2.1905
R96 IM.n33 IM.t46 2.1905
R97 IM.n34 IM.t15 2.1905
R98 IM.n35 IM.t3 2.1905
R99 IM.n36 IM.t31 2.1905
R100 IM.n37 IM.t58 2.1905
R101 IM.n38 IM.t42 2.1905
R102 IM.n39 IM.t12 2.1905
R103 IM.n40 IM.t39 2.1905
R104 IM.n41 IM.t21 2.1905
R105 IM.n42 IM.t50 2.1905
R106 IM.n43 IM.t40 2.1905
R107 IM.n44 IM.t10 2.1905
R108 IM.n45 IM.t52 2.1905
R109 IM.n46 IM.t0 2.1905
R110 IM.n47 IM.t14 2.1905
R111 IM.n48 IM.t38 2.1905
R112 IM.n49 IM.t53 2.1905
R113 IM.n50 IM.t5 2.1905
R114 IM.n51 IM.t34 2.1905
R115 IM.n52 IM.t44 2.1905
R116 IM.n53 IM.t55 2.1905
R117 IM.n54 IM.t11 2.1905
R118 IM.n55 IM.t36 2.1905
R119 IM.n56 IM.t45 2.1905
R120 IM.n57 IM.t61 2.1905
R121 IM.n58 IM.t6 2.1905
R122 IM.n59 IM.t20 2.1905
R123 IM.n60 IM.t28 2.1905
R124 IM.n61 IM 1.61818
R125 IM.n62 IM 1.61818
R126 IM IM.n15 0.0659954
R127 IM.n15 IM 0.00703226
R128 IM IM.n61 0.00703226
R129 IM IM.n62 0.00703226
R130 VSS.n174 VSS.t2 73.1772
R131 VSS.n217 VSS.t13 51.4363
R132 VSS.n240 VSS.t1 41.8915
R133 VSS.n187 VSS.t10 39.2402
R134 VSS.n207 VSS.t12 36.5889
R135 VSS.n1 VSS.t6 33.9375
R136 VSS.n17 VSS.t8 29.6954
R137 VSS.n220 VSS.t14 27.0441
R138 VSS.n227 VSS.t5 21.7414
R139 VSS.n9 VSS.t9 19.0901
R140 VSS.n243 VSS.t3 17.4993
R141 VSS.n184 VSS.t0 14.8479
R142 VSS.n204 VSS.t15 12.1966
R143 VSS.n326 VSS.n25 11.6672
R144 VSS.n181 VSS.t4 9.54529
R145 VSS.n125 VSS.t26 6.55042
R146 VSS.n261 VSS.t75 6.55042
R147 VSS.n206 VSS.t108 6.55042
R148 VSS.n56 VSS.t72 6.55042
R149 VSS.n83 VSS.n47 6.52684
R150 VSS.n156 VSS.n155 6.50224
R151 VSS.n252 VSS.n251 6.50224
R152 VSS.n196 VSS.n195 6.50224
R153 VSS.n14 VSS.t11 5.30316
R154 VSS.n93 VSS.n91 3.85174
R155 VSS.n312 VSS.n311 3.85174
R156 VSS.n35 VSS.n33 3.85174
R157 VSS.n11 VSS.n7 3.85174
R158 VSS.n100 VSS.n89 3.80202
R159 VSS.n103 VSS.n87 3.80202
R160 VSS.n112 VSS.n85 3.80202
R161 VSS.n318 VSS.n309 3.80202
R162 VSS.n305 VSS.n44 3.80202
R163 VSS.n296 VSS.n46 3.80202
R164 VSS.n41 VSS.n31 3.80202
R165 VSS.n162 VSS.n161 3.80202
R166 VSS.n171 VSS.n159 3.80202
R167 VSS.n23 VSS.n5 3.80202
R168 VSS.n180 VSS.n179 3.80202
R169 VSS.n193 VSS.n177 3.80202
R170 VSS.n146 VSS.n119 3.75507
R171 VSS.n139 VSS.n121 3.75507
R172 VSS.n130 VSS.n123 3.75507
R173 VSS.n282 VSS.n255 3.75507
R174 VSS.n275 VSS.n257 3.75507
R175 VSS.n266 VSS.n259 3.75507
R176 VSS.n236 VSS.n199 3.75507
R177 VSS.n226 VSS.n201 3.75507
R178 VSS.n213 VSS.n203 3.75507
R179 VSS.n77 VSS.n50 3.75507
R180 VSS.n70 VSS.n52 3.75507
R181 VSS.n61 VSS.n54 3.75507
R182 VSS.n91 VSS.t104 2.7305
R183 VSS.n91 VSS.n90 2.7305
R184 VSS.n89 VSS.t97 2.7305
R185 VSS.n89 VSS.n88 2.7305
R186 VSS.n87 VSS.t105 2.7305
R187 VSS.n87 VSS.n86 2.7305
R188 VSS.n85 VSS.t111 2.7305
R189 VSS.n85 VSS.n84 2.7305
R190 VSS.n119 VSS.t40 2.7305
R191 VSS.n119 VSS.n118 2.7305
R192 VSS.n121 VSS.t24 2.7305
R193 VSS.n121 VSS.n120 2.7305
R194 VSS.n123 VSS.t81 2.7305
R195 VSS.n123 VSS.n122 2.7305
R196 VSS.n311 VSS.t51 2.7305
R197 VSS.n311 VSS.n310 2.7305
R198 VSS.n309 VSS.t96 2.7305
R199 VSS.n309 VSS.n308 2.7305
R200 VSS.n44 VSS.t107 2.7305
R201 VSS.n44 VSS.n43 2.7305
R202 VSS.n46 VSS.t23 2.7305
R203 VSS.n46 VSS.n45 2.7305
R204 VSS.n255 VSS.t86 2.7305
R205 VSS.n255 VSS.n254 2.7305
R206 VSS.n257 VSS.t69 2.7305
R207 VSS.n257 VSS.n256 2.7305
R208 VSS.n259 VSS.t17 2.7305
R209 VSS.n259 VSS.n258 2.7305
R210 VSS.n33 VSS.t62 2.7305
R211 VSS.n33 VSS.n32 2.7305
R212 VSS.n31 VSS.t106 2.7305
R213 VSS.n31 VSS.n30 2.7305
R214 VSS.n161 VSS.t22 2.7305
R215 VSS.n161 VSS.n160 2.7305
R216 VSS.n159 VSS.t43 2.7305
R217 VSS.n159 VSS.n158 2.7305
R218 VSS.n199 VSS.t19 2.7305
R219 VSS.n199 VSS.n198 2.7305
R220 VSS.n201 VSS.t99 2.7305
R221 VSS.n201 VSS.n200 2.7305
R222 VSS.n203 VSS.t59 2.7305
R223 VSS.n203 VSS.n202 2.7305
R224 VSS.n50 VSS.t54 2.7305
R225 VSS.n50 VSS.n49 2.7305
R226 VSS.n52 VSS.t44 2.7305
R227 VSS.n52 VSS.n51 2.7305
R228 VSS.n54 VSS.t41 2.7305
R229 VSS.n54 VSS.n53 2.7305
R230 VSS.n7 VSS.t30 2.7305
R231 VSS.n7 VSS.n6 2.7305
R232 VSS.n5 VSS.t73 2.7305
R233 VSS.n5 VSS.n4 2.7305
R234 VSS.n179 VSS.t88 2.7305
R235 VSS.n179 VSS.n178 2.7305
R236 VSS.n177 VSS.t101 2.7305
R237 VSS.n177 VSS.n176 2.7305
R238 VSS.n223 VSS.t7 2.65183
R239 VSS.n242 VSS.n241 2.6005
R240 VSS.n241 VSS.n240 2.6005
R241 VSS.n239 VSS.n238 2.6005
R242 VSS.n238 VSS.n237 2.6005
R243 VSS.n235 VSS.n234 2.6005
R244 VSS.n234 VSS.n233 2.6005
R245 VSS.n232 VSS.n231 2.6005
R246 VSS.n231 VSS.n230 2.6005
R247 VSS.n229 VSS.n228 2.6005
R248 VSS.n228 VSS.n227 2.6005
R249 VSS.n225 VSS.n224 2.6005
R250 VSS.n224 VSS.n223 2.6005
R251 VSS.n222 VSS.n221 2.6005
R252 VSS.n221 VSS.n220 2.6005
R253 VSS.n219 VSS.n218 2.6005
R254 VSS.n218 VSS.n217 2.6005
R255 VSS.n216 VSS.n215 2.6005
R256 VSS.n215 VSS.n214 2.6005
R257 VSS.n212 VSS.n211 2.6005
R258 VSS.n211 VSS.n210 2.6005
R259 VSS.n209 VSS.n208 2.6005
R260 VSS.n208 VSS.n207 2.6005
R261 VSS.n206 VSS.n205 2.6005
R262 VSS.n205 VSS.n204 2.6005
R263 VSS.n245 VSS.n244 2.6005
R264 VSS.n244 VSS.n243 2.6005
R265 VSS.n173 VSS.n172 2.6005
R266 VSS.n170 VSS.n169 2.6005
R267 VSS.n168 VSS.n167 2.6005
R268 VSS.n166 VSS.n165 2.6005
R269 VSS.n164 VSS.n163 2.6005
R270 VSS.n29 VSS.n28 2.6005
R271 VSS.n324 VSS 2.6005
R272 VSS.n325 VSS.n324 2.6005
R273 VSS.n323 VSS.n322 2.6005
R274 VSS.n322 VSS.n321 2.6005
R275 VSS.n40 VSS.n39 2.6005
R276 VSS.n38 VSS.n37 2.6005
R277 VSS.n14 VSS.n13 2.6005
R278 VSS.n35 VSS.n34 2.6005
R279 VSS.n286 VSS.n285 2.6005
R280 VSS.n284 VSS.n283 2.6005
R281 VSS.n281 VSS.n280 2.6005
R282 VSS.n279 VSS.n278 2.6005
R283 VSS.n277 VSS.n276 2.6005
R284 VSS.n274 VSS.n273 2.6005
R285 VSS.n272 VSS.n271 2.6005
R286 VSS.n270 VSS.n269 2.6005
R287 VSS.n268 VSS.n267 2.6005
R288 VSS.n265 VSS.n264 2.6005
R289 VSS.n263 VSS.n262 2.6005
R290 VSS.n261 VSS.n260 2.6005
R291 VSS.n288 VSS.n287 2.6005
R292 VSS.n295 VSS.n294 2.6005
R293 VSS.n298 VSS.n297 2.6005
R294 VSS.n300 VSS.n299 2.6005
R295 VSS.n302 VSS.n301 2.6005
R296 VSS.n304 VSS.n303 2.6005
R297 VSS.n307 VSS.n306 2.6005
R298 VSS VSS.n27 2.6005
R299 VSS.n325 VSS.n27 2.6005
R300 VSS.n320 VSS.n319 2.6005
R301 VSS.n321 VSS.n320 2.6005
R302 VSS.n317 VSS.n316 2.6005
R303 VSS.n315 VSS.n314 2.6005
R304 VSS.n14 VSS.n12 2.6005
R305 VSS.n9 VSS.n8 2.6005
R306 VSS.n150 VSS.n149 2.6005
R307 VSS.n148 VSS.n147 2.6005
R308 VSS.n145 VSS.n144 2.6005
R309 VSS.n143 VSS.n142 2.6005
R310 VSS.n141 VSS.n140 2.6005
R311 VSS.n138 VSS.n137 2.6005
R312 VSS.n136 VSS.n135 2.6005
R313 VSS.n134 VSS.n133 2.6005
R314 VSS.n132 VSS.n131 2.6005
R315 VSS.n129 VSS.n128 2.6005
R316 VSS.n127 VSS.n126 2.6005
R317 VSS.n125 VSS.n124 2.6005
R318 VSS.n152 VSS.n151 2.6005
R319 VSS.n114 VSS.n113 2.6005
R320 VSS.n111 VSS.n110 2.6005
R321 VSS.n109 VSS.n108 2.6005
R322 VSS.n107 VSS.n106 2.6005
R323 VSS.n105 VSS.n104 2.6005
R324 VSS.n1 VSS.n0 2.6005
R325 VSS VSS.n26 2.6005
R326 VSS.n325 VSS.n26 2.6005
R327 VSS.n101 VSS.n42 2.6005
R328 VSS.n321 VSS.n42 2.6005
R329 VSS.n99 VSS.n98 2.6005
R330 VSS.n97 VSS.n96 2.6005
R331 VSS.n95 VSS.n94 2.6005
R332 VSS.n93 VSS.n92 2.6005
R333 VSS.n80 VSS.n48 2.6005
R334 VSS.n79 VSS.n78 2.6005
R335 VSS.n76 VSS.n75 2.6005
R336 VSS.n74 VSS.n73 2.6005
R337 VSS.n72 VSS.n71 2.6005
R338 VSS.n69 VSS.n68 2.6005
R339 VSS.n67 VSS.n66 2.6005
R340 VSS.n65 VSS.n64 2.6005
R341 VSS.n63 VSS.n62 2.6005
R342 VSS.n60 VSS.n59 2.6005
R343 VSS.n58 VSS.n57 2.6005
R344 VSS.n56 VSS.n55 2.6005
R345 VSS.n82 VSS.n81 2.6005
R346 VSS.n194 VSS.n175 2.6005
R347 VSS.n175 VSS.n174 2.6005
R348 VSS.n192 VSS.n191 2.6005
R349 VSS.n191 VSS.n190 2.6005
R350 VSS.n189 VSS.n188 2.6005
R351 VSS.n188 VSS.n187 2.6005
R352 VSS.n186 VSS.n185 2.6005
R353 VSS.n185 VSS.n184 2.6005
R354 VSS.n183 VSS.n182 2.6005
R355 VSS.n182 VSS.n181 2.6005
R356 VSS.n3 VSS.n2 2.6005
R357 VSS.n2 VSS.n1 2.6005
R358 VSS VSS.n326 2.6005
R359 VSS.n326 VSS.n325 2.6005
R360 VSS.n25 VSS.n24 2.6005
R361 VSS.n321 VSS.n25 2.6005
R362 VSS.n22 VSS.n21 2.6005
R363 VSS.n21 VSS.n20 2.6005
R364 VSS.n19 VSS.n18 2.6005
R365 VSS.n18 VSS.n17 2.6005
R366 VSS.n16 VSS.n15 2.6005
R367 VSS.n15 VSS.n14 2.6005
R368 VSS.n11 VSS.n10 2.6005
R369 VSS.n10 VSS.n9 2.6005
R370 VSS.n154 VSS.n153 2.2505
R371 VSS.n157 VSS.n156 2.2505
R372 VSS.n290 VSS.n289 2.2505
R373 VSS.n253 VSS.n252 2.2505
R374 VSS.n247 VSS.n246 2.2505
R375 VSS.n197 VSS.n196 2.2505
R376 VSS.n197 VSS.n194 1.33855
R377 VSS.n115 VSS.n83 1.2659
R378 VSS.n293 VSS.n157 0.703183
R379 VSS.n253 VSS.n250 0.703183
R380 VSS.n115 VSS.n114 0.635926
R381 VSS.n295 VSS.n293 0.635926
R382 VSS.n250 VSS.n173 0.635926
R383 VSS.n111 VSS.n109 0.1505
R384 VSS.n109 VSS.n107 0.1505
R385 VSS.n107 VSS.n105 0.1505
R386 VSS.n102 VSS 0.1505
R387 VSS VSS.n101 0.1505
R388 VSS.n99 VSS.n97 0.1505
R389 VSS.n97 VSS.n95 0.1505
R390 VSS.n95 VSS.n93 0.1505
R391 VSS.n300 VSS.n298 0.1505
R392 VSS.n302 VSS.n300 0.1505
R393 VSS.n304 VSS.n302 0.1505
R394 VSS VSS.n307 0.1505
R395 VSS.n319 VSS 0.1505
R396 VSS.n317 VSS.n315 0.1505
R397 VSS.n315 VSS.n313 0.1505
R398 VSS.n313 VSS.n312 0.1505
R399 VSS.n170 VSS.n168 0.1505
R400 VSS.n168 VSS.n166 0.1505
R401 VSS.n166 VSS.n164 0.1505
R402 VSS VSS.n29 0.1505
R403 VSS VSS.n323 0.1505
R404 VSS.n40 VSS.n38 0.1505
R405 VSS.n38 VSS.n36 0.1505
R406 VSS.n36 VSS.n35 0.1505
R407 VSS.n192 VSS.n189 0.1505
R408 VSS.n189 VSS.n186 0.1505
R409 VSS.n186 VSS.n183 0.1505
R410 VSS VSS.n3 0.1505
R411 VSS.n22 VSS.n19 0.1505
R412 VSS.n19 VSS.n16 0.1505
R413 VSS.n16 VSS.n11 0.1505
R414 VSS.n24 VSS 0.150071
R415 VSS.n83 VSS.n82 0.142302
R416 VSS.n114 VSS.n112 0.136786
R417 VSS.n296 VSS.n295 0.136786
R418 VSS.n173 VSS.n171 0.136786
R419 VSS.n194 VSS.n193 0.136786
R420 VSS.n152 VSS.n150 0.131205
R421 VSS.n150 VSS.n148 0.131205
R422 VSS.n145 VSS.n143 0.131205
R423 VSS.n143 VSS.n141 0.131205
R424 VSS.n138 VSS.n136 0.131205
R425 VSS.n136 VSS.n134 0.131205
R426 VSS.n134 VSS.n132 0.131205
R427 VSS.n129 VSS.n127 0.131205
R428 VSS.n127 VSS.n125 0.131205
R429 VSS.n288 VSS.n286 0.131205
R430 VSS.n286 VSS.n284 0.131205
R431 VSS.n281 VSS.n279 0.131205
R432 VSS.n279 VSS.n277 0.131205
R433 VSS.n274 VSS.n272 0.131205
R434 VSS.n272 VSS.n270 0.131205
R435 VSS.n270 VSS.n268 0.131205
R436 VSS.n265 VSS.n263 0.131205
R437 VSS.n263 VSS.n261 0.131205
R438 VSS.n245 VSS.n242 0.131205
R439 VSS.n242 VSS.n239 0.131205
R440 VSS.n235 VSS.n232 0.131205
R441 VSS.n232 VSS.n229 0.131205
R442 VSS.n225 VSS.n222 0.131205
R443 VSS.n222 VSS.n219 0.131205
R444 VSS.n219 VSS.n216 0.131205
R445 VSS.n212 VSS.n209 0.131205
R446 VSS.n209 VSS.n206 0.131205
R447 VSS.n82 VSS.n80 0.131205
R448 VSS.n80 VSS.n79 0.131205
R449 VSS.n76 VSS.n74 0.131205
R450 VSS.n74 VSS.n72 0.131205
R451 VSS.n69 VSS.n67 0.131205
R452 VSS.n67 VSS.n65 0.131205
R453 VSS.n65 VSS.n63 0.131205
R454 VSS.n60 VSS.n58 0.131205
R455 VSS.n58 VSS.n56 0.131205
R456 VSS.n101 VSS.n100 0.129071
R457 VSS.n319 VSS.n318 0.129071
R458 VSS.n323 VSS.n41 0.129071
R459 VSS.n24 VSS.n23 0.129071
R460 VSS.n130 VSS.n129 0.127844
R461 VSS.n266 VSS.n265 0.127844
R462 VSS.n213 VSS.n212 0.127844
R463 VSS.n61 VSS.n60 0.127844
R464 VSS.n146 VSS.n145 0.121122
R465 VSS.n282 VSS.n281 0.121122
R466 VSS.n236 VSS.n235 0.121122
R467 VSS.n77 VSS.n76 0.121122
R468 VSS.n153 VSS.n152 0.117388
R469 VSS.n289 VSS.n288 0.117388
R470 VSS.n246 VSS.n245 0.117388
R471 VSS.n116 VSS.n115 0.106138
R472 VSS.n293 VSS.n292 0.106138
R473 VSS.n250 VSS.n249 0.106138
R474 VSS.n103 VSS.n102 0.0930714
R475 VSS.n307 VSS.n305 0.0930714
R476 VSS.n162 VSS.n29 0.0930714
R477 VSS.n180 VSS.n3 0.0930714
R478 VSS.n141 VSS.n139 0.0725747
R479 VSS.n277 VSS.n275 0.0725747
R480 VSS.n229 VSS.n226 0.0725747
R481 VSS.n72 VSS.n70 0.0725747
R482 VSS.n139 VSS.n138 0.0591307
R483 VSS.n275 VSS.n274 0.0591307
R484 VSS.n226 VSS.n225 0.0591307
R485 VSS.n70 VSS.n69 0.0591307
R486 VSS.n105 VSS.n103 0.0579286
R487 VSS.n305 VSS.n304 0.0579286
R488 VSS.n164 VSS.n162 0.0579286
R489 VSS.n183 VSS.n180 0.0579286
R490 VSS.n154 VSS.n117 0.0419226
R491 VSS.n291 VSS.n290 0.0419226
R492 VSS.n248 VSS.n247 0.0419226
R493 VSS.n100 VSS.n99 0.0219286
R494 VSS.n318 VSS.n317 0.0219286
R495 VSS.n41 VSS.n40 0.0219286
R496 VSS.n23 VSS.n22 0.0219286
R497 VSS.n112 VSS.n111 0.0142143
R498 VSS.n298 VSS.n296 0.0142143
R499 VSS.n171 VSS.n170 0.0142143
R500 VSS.n193 VSS.n192 0.0142143
R501 VSS.n148 VSS.n146 0.010583
R502 VSS.n284 VSS.n282 0.010583
R503 VSS.n239 VSS.n236 0.010583
R504 VSS.n79 VSS.n77 0.010583
R505 VSS.n132 VSS.n130 0.003861
R506 VSS.n268 VSS.n266 0.003861
R507 VSS.n216 VSS.n213 0.003861
R508 VSS.n63 VSS.n61 0.003861
R509 VSS.n117 VSS.n116 0.00351255
R510 VSS.n292 VSS.n291 0.00351255
R511 VSS.n249 VSS.n248 0.00351255
R512 VSS.n157 VSS.n154 0.00162971
R513 VSS.n290 VSS.n253 0.00162971
R514 VSS.n247 VSS.n197 0.00162971
R515 a_424_490.n26 a_424_490.n20 3.22004
R516 a_424_490.n193 a_424_490.n1 3.07769
R517 a_424_490.n82 a_424_490.n81 3.07769
R518 a_424_490.n42 a_424_490.n41 3.07769
R519 a_424_490.n10 a_424_490.n9 3.07769
R520 a_424_490.n179 a_424_490.n178 2.93817
R521 a_424_490.n151 a_424_490.n150 2.93817
R522 a_424_490.n139 a_424_490.n138 2.93817
R523 a_424_490.n24 a_424_490.n23 2.87833
R524 a_424_490.n143 a_424_490.n142 2.87833
R525 a_424_490.n155 a_424_490.n154 2.87833
R526 a_424_490.n185 a_424_490.n184 2.87833
R527 a_424_490.n194 a_424_490.n193 2.80003
R528 a_424_490.n82 a_424_490.n79 2.79937
R529 a_424_490.n42 a_424_490.n39 2.79937
R530 a_424_490.n10 a_424_490.n7 2.79937
R531 a_424_490.n29 a_424_490.n14 2.79724
R532 a_424_490.n28 a_424_490.n16 2.79662
R533 a_424_490.n30 a_424_490.n12 2.79463
R534 a_424_490.n25 a_424_490.n22 2.79421
R535 a_424_490.n144 a_424_490.n141 2.79377
R536 a_424_490.n156 a_424_490.n153 2.79377
R537 a_424_490.n186 a_424_490.n183 2.79377
R538 a_424_490.n31 a_424_490.n5 2.79336
R539 a_424_490.n27 a_424_490.n18 2.79324
R540 a_424_490.n1 a_424_490.t64 2.7305
R541 a_424_490.n1 a_424_490.n0 2.7305
R542 a_424_490.n3 a_424_490.t45 2.7305
R543 a_424_490.n3 a_424_490.n2 2.7305
R544 a_424_490.n105 a_424_490.t59 2.7305
R545 a_424_490.n105 a_424_490.n104 2.7305
R546 a_424_490.n113 a_424_490.t7 2.7305
R547 a_424_490.n113 a_424_490.n112 2.7305
R548 a_424_490.n121 a_424_490.t57 2.7305
R549 a_424_490.n121 a_424_490.n120 2.7305
R550 a_424_490.n167 a_424_490.t44 2.7305
R551 a_424_490.n167 a_424_490.n166 2.7305
R552 a_424_490.n181 a_424_490.t51 2.7305
R553 a_424_490.n181 a_424_490.n180 2.7305
R554 a_424_490.n178 a_424_490.t125 2.7305
R555 a_424_490.n178 a_424_490.n177 2.7305
R556 a_424_490.n175 a_424_490.t62 2.7305
R557 a_424_490.n175 a_424_490.n174 2.7305
R558 a_424_490.n81 a_424_490.t105 2.7305
R559 a_424_490.n81 a_424_490.n80 2.7305
R560 a_424_490.n79 a_424_490.t27 2.7305
R561 a_424_490.n79 a_424_490.n78 2.7305
R562 a_424_490.n99 a_424_490.t1 2.7305
R563 a_424_490.n99 a_424_490.n98 2.7305
R564 a_424_490.n102 a_424_490.t98 2.7305
R565 a_424_490.n102 a_424_490.n101 2.7305
R566 a_424_490.n107 a_424_490.t97 2.7305
R567 a_424_490.n107 a_424_490.n106 2.7305
R568 a_424_490.n110 a_424_490.t113 2.7305
R569 a_424_490.n110 a_424_490.n109 2.7305
R570 a_424_490.n115 a_424_490.t6 2.7305
R571 a_424_490.n115 a_424_490.n114 2.7305
R572 a_424_490.n118 a_424_490.t78 2.7305
R573 a_424_490.n118 a_424_490.n117 2.7305
R574 a_424_490.n161 a_424_490.t70 2.7305
R575 a_424_490.n161 a_424_490.n160 2.7305
R576 a_424_490.n164 a_424_490.t124 2.7305
R577 a_424_490.n164 a_424_490.n163 2.7305
R578 a_424_490.n169 a_424_490.t28 2.7305
R579 a_424_490.n169 a_424_490.n168 2.7305
R580 a_424_490.n172 a_424_490.t76 2.7305
R581 a_424_490.n172 a_424_490.n171 2.7305
R582 a_424_490.n132 a_424_490.t73 2.7305
R583 a_424_490.n132 a_424_490.n131 2.7305
R584 a_424_490.n129 a_424_490.t24 2.7305
R585 a_424_490.n129 a_424_490.n128 2.7305
R586 a_424_490.n41 a_424_490.t71 2.7305
R587 a_424_490.n41 a_424_490.n40 2.7305
R588 a_424_490.n39 a_424_490.t34 2.7305
R589 a_424_490.n39 a_424_490.n38 2.7305
R590 a_424_490.n73 a_424_490.t12 2.7305
R591 a_424_490.n73 a_424_490.n72 2.7305
R592 a_424_490.n76 a_424_490.t86 2.7305
R593 a_424_490.n76 a_424_490.n75 2.7305
R594 a_424_490.n84 a_424_490.t63 2.7305
R595 a_424_490.n84 a_424_490.n83 2.7305
R596 a_424_490.n87 a_424_490.t0 2.7305
R597 a_424_490.n87 a_424_490.n86 2.7305
R598 a_424_490.n90 a_424_490.t8 2.7305
R599 a_424_490.n90 a_424_490.n89 2.7305
R600 a_424_490.n93 a_424_490.t81 2.7305
R601 a_424_490.n93 a_424_490.n92 2.7305
R602 a_424_490.n123 a_424_490.t99 2.7305
R603 a_424_490.n123 a_424_490.n122 2.7305
R604 a_424_490.n126 a_424_490.t35 2.7305
R605 a_424_490.n126 a_424_490.n125 2.7305
R606 a_424_490.n147 a_424_490.t88 2.7305
R607 a_424_490.n147 a_424_490.n146 2.7305
R608 a_424_490.n150 a_424_490.t31 2.7305
R609 a_424_490.n150 a_424_490.n149 2.7305
R610 a_424_490.n138 a_424_490.t36 2.7305
R611 a_424_490.n138 a_424_490.n137 2.7305
R612 a_424_490.n135 a_424_490.t111 2.7305
R613 a_424_490.n135 a_424_490.n134 2.7305
R614 a_424_490.n20 a_424_490.t19 2.7305
R615 a_424_490.n20 a_424_490.n19 2.7305
R616 a_424_490.n9 a_424_490.t93 2.7305
R617 a_424_490.n9 a_424_490.n8 2.7305
R618 a_424_490.n7 a_424_490.t47 2.7305
R619 a_424_490.n7 a_424_490.n6 2.7305
R620 a_424_490.n33 a_424_490.t37 2.7305
R621 a_424_490.n33 a_424_490.n32 2.7305
R622 a_424_490.n36 a_424_490.t96 2.7305
R623 a_424_490.n36 a_424_490.n35 2.7305
R624 a_424_490.n5 a_424_490.t75 2.7305
R625 a_424_490.n5 a_424_490.n4 2.7305
R626 a_424_490.n44 a_424_490.t83 2.7305
R627 a_424_490.n44 a_424_490.n43 2.7305
R628 a_424_490.n47 a_424_490.t13 2.7305
R629 a_424_490.n47 a_424_490.n46 2.7305
R630 a_424_490.n12 a_424_490.t43 2.7305
R631 a_424_490.n12 a_424_490.n11 2.7305
R632 a_424_490.n50 a_424_490.t116 2.7305
R633 a_424_490.n50 a_424_490.n49 2.7305
R634 a_424_490.n53 a_424_490.t90 2.7305
R635 a_424_490.n53 a_424_490.n52 2.7305
R636 a_424_490.n14 a_424_490.t69 2.7305
R637 a_424_490.n14 a_424_490.n13 2.7305
R638 a_424_490.n56 a_424_490.t56 2.7305
R639 a_424_490.n56 a_424_490.n55 2.7305
R640 a_424_490.n59 a_424_490.t29 2.7305
R641 a_424_490.n59 a_424_490.n58 2.7305
R642 a_424_490.n16 a_424_490.t9 2.7305
R643 a_424_490.n16 a_424_490.n15 2.7305
R644 a_424_490.n62 a_424_490.t22 2.7305
R645 a_424_490.n62 a_424_490.n61 2.7305
R646 a_424_490.n65 a_424_490.t80 2.7305
R647 a_424_490.n65 a_424_490.n64 2.7305
R648 a_424_490.n18 a_424_490.t61 2.7305
R649 a_424_490.n18 a_424_490.n17 2.7305
R650 a_424_490.n22 a_424_490.t89 2.7305
R651 a_424_490.n22 a_424_490.n21 2.7305
R652 a_424_490.n141 a_424_490.t49 2.7305
R653 a_424_490.n141 a_424_490.n140 2.7305
R654 a_424_490.n153 a_424_490.t102 2.7305
R655 a_424_490.n153 a_424_490.n152 2.7305
R656 a_424_490.n183 a_424_490.t92 2.7305
R657 a_424_490.n183 a_424_490.n182 2.7305
R658 a_424_490.n194 a_424_490.t2 2.7305
R659 a_424_490.n195 a_424_490.n194 2.7305
R660 a_424_490.n190 a_424_490.n113 2.68248
R661 a_424_490.n191 a_424_490.n105 2.68235
R662 a_424_490.n189 a_424_490.n121 2.67583
R663 a_424_490.n192 a_424_490.n3 2.67342
R664 a_424_490.n187 a_424_490.n181 2.67239
R665 a_424_490.n188 a_424_490.n167 2.67214
R666 a_424_490.n25 a_424_490.n24 2.66766
R667 a_424_490.n144 a_424_490.n143 2.66766
R668 a_424_490.n156 a_424_490.n155 2.66766
R669 a_424_490.n186 a_424_490.n185 2.66766
R670 a_424_490.n176 a_424_490.n175 2.56335
R671 a_424_490.n148 a_424_490.n147 2.56335
R672 a_424_490.n136 a_424_490.n135 2.56335
R673 a_424_490.n170 a_424_490.n169 2.56317
R674 a_424_490.n130 a_424_490.n129 2.56317
R675 a_424_490.n63 a_424_490.n62 2.56317
R676 a_424_490.n100 a_424_490.n99 2.56299
R677 a_424_490.n74 a_424_490.n73 2.56299
R678 a_424_490.n34 a_424_490.n33 2.56299
R679 a_424_490.n119 a_424_490.n118 2.56281
R680 a_424_490.n165 a_424_490.n164 2.56281
R681 a_424_490.n94 a_424_490.n93 2.56281
R682 a_424_490.n127 a_424_490.n126 2.56281
R683 a_424_490.n54 a_424_490.n53 2.56281
R684 a_424_490.n60 a_424_490.n59 2.56281
R685 a_424_490.n108 a_424_490.n107 2.56272
R686 a_424_490.n116 a_424_490.n115 2.56272
R687 a_424_490.n85 a_424_490.n84 2.56272
R688 a_424_490.n91 a_424_490.n90 2.56272
R689 a_424_490.n45 a_424_490.n44 2.56272
R690 a_424_490.n51 a_424_490.n50 2.56272
R691 a_424_490.n162 a_424_490.n161 2.56263
R692 a_424_490.n124 a_424_490.n123 2.56263
R693 a_424_490.n57 a_424_490.n56 2.56263
R694 a_424_490.n103 a_424_490.n102 2.56245
R695 a_424_490.n111 a_424_490.n110 2.56245
R696 a_424_490.n173 a_424_490.n172 2.56245
R697 a_424_490.n133 a_424_490.n132 2.56245
R698 a_424_490.n77 a_424_490.n76 2.56245
R699 a_424_490.n88 a_424_490.n87 2.56245
R700 a_424_490.n37 a_424_490.n36 2.56245
R701 a_424_490.n48 a_424_490.n47 2.56245
R702 a_424_490.n66 a_424_490.n65 2.56245
R703 a_424_490.n24 a_424_490.t42 2.4382
R704 a_424_490.n143 a_424_490.t117 2.4382
R705 a_424_490.n155 a_424_490.t20 2.4382
R706 a_424_490.n185 a_424_490.t41 2.4382
R707 a_424_490.n173 a_424_490.n170 1.66688
R708 a_424_490.n66 a_424_490.n63 1.66688
R709 a_424_490.n133 a_424_490.n130 1.66688
R710 a_424_490.n103 a_424_490.n100 1.66543
R711 a_424_490.n77 a_424_490.n74 1.66543
R712 a_424_490.n37 a_424_490.n34 1.66543
R713 a_424_490.n151 a_424_490.n148 1.66252
R714 a_424_490.n139 a_424_490.n136 1.66252
R715 a_424_490.n179 a_424_490.n176 1.66252
R716 a_424_490.n165 a_424_490.n162 1.65962
R717 a_424_490.n127 a_424_490.n124 1.65962
R718 a_424_490.n60 a_424_490.n57 1.65962
R719 a_424_490.n111 a_424_490.n108 1.65672
R720 a_424_490.n88 a_424_490.n85 1.65672
R721 a_424_490.n48 a_424_490.n45 1.65672
R722 a_424_490.n119 a_424_490.n116 1.65381
R723 a_424_490.n94 a_424_490.n91 1.65381
R724 a_424_490.n54 a_424_490.n51 1.65381
R725 a_424_490.n26 a_424_490.n25 0.890339
R726 a_424_490.n145 a_424_490.n144 0.890339
R727 a_424_490.n157 a_424_490.n156 0.890339
R728 a_424_490.n187 a_424_490.n186 0.890339
R729 a_424_490.n30 a_424_490.n29 0.888887