* NGSPICE file created from MSB_Unit_Cell_flat.ext - technology: gf180mcuC

.subckt MSB_Unit_Cell_flat IM VSS Ri Ci Ri-1 VDD QB Q OUT OUT+ OUT- SD IM_T
X0 OUT- QB.t3 OUT.t55 VSS.t7 nfet_03v3 ad=0.156p pd=1.12u as=0.156p ps=1.12u w=0.6u l=0.5u
X1 OUT IM_T.t0 SD.t48 VSS.t102 nfet_03v3 ad=0.312p pd=1.72u as=0.312p ps=1.72u w=1.2u l=0.5u
X2 OUT+ Q.t3 OUT.t120 VSS.t33 nfet_03v3 ad=0.156p pd=1.12u as=0.156p ps=1.12u w=0.6u l=0.5u
X3 VSS IM.t0 SD.t3 VSS.t43 nfet_03v3 ad=0.312p pd=1.72u as=0.312p ps=1.72u w=1.2u l=0.5u
X4 Local_Enc_0.NAND_5.A Local_Enc_0.NAND_6.B VDD.t10 VDD.t9 pfet_03v3 ad=0.13p pd=1.02u as=0.22p ps=1.88u w=0.5u l=0.28u
X5 OUT- QB.t4 OUT.t54 VSS.t21 nfet_03v3 ad=0.156p pd=1.12u as=0.156p ps=1.12u w=0.6u l=0.5u
X6 OUT+ Q.t4 OUT.t121 VSS.t31 nfet_03v3 ad=0.156p pd=1.12u as=0.156p ps=1.12u w=0.6u l=0.5u
X7 OUT Q.t5 OUT+.t61 VSS.t8 nfet_03v3 ad=0.156p pd=1.12u as=0.156p ps=1.12u w=0.6u l=0.5u
X8 OUT- QB.t5 OUT.t53 VSS.t33 nfet_03v3 ad=0.156p pd=1.12u as=0.156p ps=1.12u w=0.6u l=0.5u
X9 OUT+ Q.t6 OUT.t138 VSS.t10 nfet_03v3 ad=0.156p pd=1.12u as=0.156p ps=1.12u w=0.6u l=0.5u
X10 OUT+ Q.t7 OUT.t15 VSS.t21 nfet_03v3 ad=0.156p pd=1.12u as=0.156p ps=1.12u w=0.6u l=0.5u
X11 SD IM_T.t1 OUT.t10 VSS.t14 nfet_03v3 ad=0.312p pd=1.72u as=0.312p ps=1.72u w=1.2u l=0.5u
X12 OUT+ Q.t8 OUT.t16 VSS.t22 nfet_03v3 ad=0.156p pd=1.12u as=0.156p ps=1.12u w=0.6u l=0.5u
X13 SD IM_T.t2 OUT.t116 VSS.t63 nfet_03v3 ad=0.312p pd=1.72u as=0.312p ps=1.72u w=1.2u l=0.5u
X14 OUT- QB.t6 OUT.t52 VSS.t19 nfet_03v3 ad=0.156p pd=1.12u as=0.156p ps=1.12u w=0.6u l=0.5u
X15 OUT QB.t7 OUT-.t59 VSS.t32 nfet_03v3 ad=0.156p pd=1.12u as=0.264p ps=2.08u w=0.6u l=0.5u
X16 OUT- QB.t8 OUT.t51 VSS.t22 nfet_03v3 ad=0.156p pd=1.12u as=0.156p ps=1.12u w=0.6u l=0.5u
X17 OUT QB.t9 OUT-.t57 VSS.t11 nfet_03v3 ad=0.156p pd=1.12u as=0.156p ps=1.12u w=0.6u l=0.5u
X18 OUT Q.t9 OUT+.t57 VSS.t30 nfet_03v3 ad=0.156p pd=1.12u as=0.156p ps=1.12u w=0.6u l=0.5u
X19 SD IM_T.t3 OUT.t92 VSS.t36 nfet_03v3 ad=0.312p pd=1.72u as=0.312p ps=1.72u w=1.2u l=0.5u
X20 OUT Q.t10 OUT+.t56 VSS.t32 nfet_03v3 ad=0.156p pd=1.12u as=0.264p ps=2.08u w=0.6u l=0.5u
X21 OUT Q.t11 OUT+.t55 VSS.t20 nfet_03v3 ad=0.156p pd=1.12u as=0.156p ps=1.12u w=0.6u l=0.5u
X22 OUT Q.t12 OUT+.t54 VSS.t9 nfet_03v3 ad=0.156p pd=1.12u as=0.156p ps=1.12u w=0.6u l=0.5u
X23 OUT+ Q.t13 OUT.t104 VSS.t19 nfet_03v3 ad=0.156p pd=1.12u as=0.156p ps=1.12u w=0.6u l=0.5u
X24 OUT+ Q.t14 OUT.t105 VSS.t28 nfet_03v3 ad=0.264p pd=2.08u as=0.156p ps=1.12u w=0.6u l=0.5u
X25 OUT Q.t15 OUT+.t51 VSS.t6 nfet_03v3 ad=0.156p pd=1.12u as=0.156p ps=1.12u w=0.6u l=0.5u
X26 OUT QB.t10 OUT-.t56 VSS.t30 nfet_03v3 ad=0.156p pd=1.12u as=0.156p ps=1.12u w=0.6u l=0.5u
X27 OUT QB.t11 OUT-.t55 VSS.t9 nfet_03v3 ad=0.156p pd=1.12u as=0.156p ps=1.12u w=0.6u l=0.5u
X28 OUT- QB.t12 OUT.t50 VSS.t7 nfet_03v3 ad=0.156p pd=1.12u as=0.156p ps=1.12u w=0.6u l=0.5u
X29 OUT IM_T.t4 SD.t44 VSS.t105 nfet_03v3 ad=0.312p pd=1.72u as=0.312p ps=1.72u w=1.2u l=0.5u
X30 OUT Q.t16 OUT+.t50 VSS.t29 nfet_03v3 ad=0.156p pd=1.12u as=0.156p ps=1.12u w=0.6u l=0.5u
X31 OUT IM_T.t5 SD.t43 VSS.t78 nfet_03v3 ad=0.312p pd=1.72u as=0.312p ps=1.72u w=1.2u l=0.5u
X32 OUT+ Q.t17 OUT.t123 VSS.t31 nfet_03v3 ad=0.156p pd=1.12u as=0.156p ps=1.12u w=0.6u l=0.5u
X33 OUT Q.t18 OUT+.t48 VSS.t8 nfet_03v3 ad=0.156p pd=1.12u as=0.156p ps=1.12u w=0.6u l=0.5u
X34 VSS IM.t1 SD.t58 VSS.t53 nfet_03v3 ad=0.312p pd=1.72u as=0.312p ps=1.72u w=1.2u l=0.5u
X35 SD IM_T.t6 OUT.t126 VSS.t90 nfet_03v3 ad=0.312p pd=1.72u as=0.312p ps=1.72u w=1.2u l=0.5u
X36 OUT+ Q.t19 OUT.t6 VSS.t10 nfet_03v3 ad=0.156p pd=1.12u as=0.156p ps=1.12u w=0.6u l=0.5u
X37 OUT QB.t13 OUT-.t53 VSS.t29 nfet_03v3 ad=0.156p pd=1.12u as=0.156p ps=1.12u w=0.6u l=0.5u
X38 Q Local_Enc_0.NAND_8.A Local_Enc_0.NAND_8.SD VSS.t49 nfet_03v3 ad=0.22p pd=1.88u as=0.13p ps=1.02u w=0.5u l=0.28u
X39 OUT Q.t20 OUT+.t46 VSS.t11 nfet_03v3 ad=0.156p pd=1.12u as=0.156p ps=1.12u w=0.6u l=0.5u
X40 SD IM_T.t7 OUT.t131 VSS.t111 nfet_03v3 ad=0.312p pd=1.72u as=0.312p ps=1.72u w=1.2u l=0.5u
X41 OUT IM_T.t8 SD.t40 VSS.t68 nfet_03v3 ad=0.312p pd=1.72u as=0.312p ps=1.72u w=1.2u l=0.5u
X42 OUT+ Q.t21 OUT.t143 VSS.t28 nfet_03v3 ad=0.264p pd=2.08u as=0.156p ps=1.12u w=0.6u l=0.5u
X43 Local_Enc_0.NAND_8.SD QB.t14 VSS.t35 VSS.t34 nfet_03v3 ad=0.13p pd=1.02u as=0.22p ps=1.88u w=0.5u l=0.28u
X44 OUT+ Q.t22 OUT.t144 VSS.t33 nfet_03v3 ad=0.156p pd=1.12u as=0.156p ps=1.12u w=0.6u l=0.5u
X45 OUT QB.t15 OUT-.t52 VSS.t20 nfet_03v3 ad=0.156p pd=1.12u as=0.156p ps=1.12u w=0.6u l=0.5u
X46 SD IM_T.t9 OUT.t127 VSS.t91 nfet_03v3 ad=0.312p pd=1.72u as=0.312p ps=1.72u w=1.2u l=0.5u
X47 SD IM_T.t10 OUT.t133 VSS.t81 nfet_03v3 ad=0.312p pd=1.72u as=0.312p ps=1.72u w=1.2u l=0.5u
X48 VSS IM.t2 SD.t2 VSS.t40 nfet_03v3 ad=0.312p pd=1.72u as=0.312p ps=1.72u w=1.2u l=0.5u
X49 Local_Enc_0.NAND_8.A Local_Enc_0.NAND_5.B VDD.t26 VDD.t25 pfet_03v3 ad=0.13p pd=1.02u as=0.22p ps=1.88u w=0.5u l=0.28u
X50 OUT- QB.t16 OUT.t49 VSS.t21 nfet_03v3 ad=0.156p pd=1.12u as=0.156p ps=1.12u w=0.6u l=0.5u
X51 Local_Enc_0.NAND_6.SD Local_Enc_0.NAND_6.B VSS.t39 VSS.t38 nfet_03v3 ad=0.13p pd=1.02u as=0.22p ps=1.88u w=0.5u l=0.28u
X52 OUT+ Q.t23 OUT.t149 VSS.t7 nfet_03v3 ad=0.156p pd=1.12u as=0.156p ps=1.12u w=0.6u l=0.5u
X53 SD IM.t3 VSS.t85 VSS.t12 nfet_03v3 ad=0.312p pd=1.72u as=0.312p ps=1.72u w=1.2u l=0.5u
X54 OUT+ Q.t24 OUT.t150 VSS.t22 nfet_03v3 ad=0.156p pd=1.12u as=0.156p ps=1.12u w=0.6u l=0.5u
X55 OUT+ Q.t25 OUT.t88 VSS.t21 nfet_03v3 ad=0.156p pd=1.12u as=0.156p ps=1.12u w=0.6u l=0.5u
X56 OUT QB.t17 OUT-.t50 VSS.t32 nfet_03v3 ad=0.156p pd=1.12u as=0.264p ps=2.08u w=0.6u l=0.5u
X57 OUT- QB.t18 OUT.t48 VSS.t31 nfet_03v3 ad=0.156p pd=1.12u as=0.156p ps=1.12u w=0.6u l=0.5u
X58 OUT- QB.t19 OUT.t47 VSS.t19 nfet_03v3 ad=0.156p pd=1.12u as=0.156p ps=1.12u w=0.6u l=0.5u
X59 SD IM.t4 VSS.t75 VSS.t74 nfet_03v3 ad=0.312p pd=1.72u as=0.312p ps=1.72u w=1.2u l=0.5u
X60 OUT QB.t20 OUT-.t47 VSS.t6 nfet_03v3 ad=0.156p pd=1.12u as=0.156p ps=1.12u w=0.6u l=0.5u
X61 OUT- QB.t21 OUT.t46 VSS.t10 nfet_03v3 ad=0.156p pd=1.12u as=0.156p ps=1.12u w=0.6u l=0.5u
X62 SD IM.t5 VSS.t118 VSS.t23 nfet_03v3 ad=0.312p pd=1.72u as=0.312p ps=1.72u w=1.2u l=0.5u
X63 OUT Q.t26 OUT+.t40 VSS.t30 nfet_03v3 ad=0.156p pd=1.12u as=0.156p ps=1.12u w=0.6u l=0.5u
X64 VDD Local_Enc_0.NAND_6.A Local_Enc_0.NAND_5.A VDD.t42 pfet_03v3 ad=0.22p pd=1.88u as=0.13p ps=1.02u w=0.5u l=0.28u
X65 Local_Enc_0.NAND_6.B Ci.t0 VDD.t36 VDD.t35 pfet_03v3 ad=0.13p pd=1.02u as=0.22p ps=1.88u w=0.5u l=0.28u
X66 VSS IM.t6 SD.t50 VSS.t24 nfet_03v3 ad=0.312p pd=1.72u as=0.312p ps=1.72u w=1.2u l=0.5u
X67 OUT Q.t27 OUT+.t39 VSS.t9 nfet_03v3 ad=0.156p pd=1.12u as=0.156p ps=1.12u w=0.6u l=0.5u
X68 OUT Q.t28 OUT+.t38 VSS.t6 nfet_03v3 ad=0.156p pd=1.12u as=0.156p ps=1.12u w=0.6u l=0.5u
X69 OUT IM_T.t11 SD.t37 VSS.t92 nfet_03v3 ad=0.312p pd=1.72u as=0.312p ps=1.72u w=1.2u l=0.5u
X70 SD IM.t7 VSS.t112 VSS.t37 nfet_03v3 ad=0.312p pd=1.72u as=0.528p ps=3.28u w=1.2u l=0.5u
X71 OUT Q.t29 OUT+.t37 VSS.t11 nfet_03v3 ad=0.156p pd=1.12u as=0.156p ps=1.12u w=0.6u l=0.5u
X72 OUT QB.t22 OUT-.t45 VSS.t30 nfet_03v3 ad=0.156p pd=1.12u as=0.156p ps=1.12u w=0.6u l=0.5u
X73 OUT QB.t23 OUT-.t44 VSS.t8 nfet_03v3 ad=0.156p pd=1.12u as=0.156p ps=1.12u w=0.6u l=0.5u
X74 OUT+ Q.t30 OUT.t113 VSS.t33 nfet_03v3 ad=0.156p pd=1.12u as=0.156p ps=1.12u w=0.6u l=0.5u
X75 OUT QB.t24 OUT-.t43 VSS.t20 nfet_03v3 ad=0.156p pd=1.12u as=0.156p ps=1.12u w=0.6u l=0.5u
X76 OUT QB.t25 OUT-.t42 VSS.t9 nfet_03v3 ad=0.156p pd=1.12u as=0.156p ps=1.12u w=0.6u l=0.5u
X77 VDD Ci.t1 Local_Enc_0.NAND_6.B VDD.t32 pfet_03v3 ad=0.22p pd=1.88u as=0.13p ps=1.02u w=0.5u l=0.28u
X78 OUT Q.t31 OUT+.t35 VSS.t29 nfet_03v3 ad=0.156p pd=1.12u as=0.156p ps=1.12u w=0.6u l=0.5u
X79 OUT Q.t32 OUT+.t34 VSS.t8 nfet_03v3 ad=0.156p pd=1.12u as=0.156p ps=1.12u w=0.6u l=0.5u
X80 VSS IM.t8 SD.t14 VSS.t56 nfet_03v3 ad=0.528p pd=3.28u as=0.312p ps=1.72u w=1.2u l=0.5u
X81 OUT+ Q.t33 OUT.t102 VSS.t7 nfet_03v3 ad=0.156p pd=1.12u as=0.156p ps=1.12u w=0.6u l=0.5u
X82 VSS IM.t9 SD.t0 VSS.t0 nfet_03v3 ad=0.312p pd=1.72u as=0.312p ps=1.72u w=1.2u l=0.5u
X83 OUT+ Q.t34 OUT.t103 VSS.t22 nfet_03v3 ad=0.156p pd=1.12u as=0.156p ps=1.12u w=0.6u l=0.5u
X84 OUT IM_T.t12 SD.t36 VSS.t108 nfet_03v3 ad=0.312p pd=1.72u as=0.312p ps=1.72u w=1.2u l=0.5u
X85 SD IM_T.t13 OUT.t132 VSS.t97 nfet_03v3 ad=0.312p pd=1.72u as=0.312p ps=1.72u w=1.2u l=0.5u
X86 OUT QB.t26 OUT-.t41 VSS.t32 nfet_03v3 ad=0.156p pd=1.12u as=0.264p ps=2.08u w=0.6u l=0.5u
X87 OUT- QB.t27 OUT.t45 VSS.t31 nfet_03v3 ad=0.156p pd=1.12u as=0.156p ps=1.12u w=0.6u l=0.5u
X88 OUT- QB.t28 OUT.t44 VSS.t19 nfet_03v3 ad=0.156p pd=1.12u as=0.156p ps=1.12u w=0.6u l=0.5u
X89 OUT- QB.t29 OUT.t43 VSS.t28 nfet_03v3 ad=0.264p pd=2.08u as=0.156p ps=1.12u w=0.6u l=0.5u
X90 VSS IM.t10 SD.t54 VSS.t102 nfet_03v3 ad=0.312p pd=1.72u as=0.312p ps=1.72u w=1.2u l=0.5u
X91 OUT- QB.t30 OUT.t42 VSS.t10 nfet_03v3 ad=0.156p pd=1.12u as=0.156p ps=1.12u w=0.6u l=0.5u
X92 OUT IM_T.t14 SD.t34 VSS.t43 nfet_03v3 ad=0.312p pd=1.72u as=0.312p ps=1.72u w=1.2u l=0.5u
X93 OUT+ Q.t35 OUT.t122 VSS.t28 nfet_03v3 ad=0.264p pd=2.08u as=0.156p ps=1.12u w=0.6u l=0.5u
X94 VDD Q.t36 QB.t1 VDD.t27 pfet_03v3 ad=0.22p pd=1.88u as=0.13p ps=1.02u w=0.5u l=0.28u
X95 QB Q.t37 Local_Enc_0.NAND_4.SD VSS.t114 nfet_03v3 ad=0.22p pd=1.88u as=0.13p ps=1.02u w=0.5u l=0.28u
X96 Local_Enc_0.NAND_6.A Ri.t0 VDD.t41 VDD.t40 pfet_03v3 ad=0.13p pd=1.02u as=0.22p ps=1.88u w=0.5u l=0.28u
X97 Local_Enc_0.NAND_4.SD Local_Enc_0.NAND_4.B VSS.t27 VSS.t26 nfet_03v3 ad=0.13p pd=1.02u as=0.22p ps=1.88u w=0.5u l=0.28u
X98 SD IM.t11 VSS.t84 VSS.t14 nfet_03v3 ad=0.312p pd=1.72u as=0.312p ps=1.72u w=1.2u l=0.5u
X99 QB Local_Enc_0.NAND_4.B VDD.t6 VDD.t5 pfet_03v3 ad=0.13p pd=1.02u as=0.22p ps=1.88u w=0.5u l=0.28u
X100 OUT- QB.t31 OUT.t41 VSS.t21 nfet_03v3 ad=0.156p pd=1.12u as=0.156p ps=1.12u w=0.6u l=0.5u
X101 SD IM.t12 VSS.t117 VSS.t63 nfet_03v3 ad=0.312p pd=1.72u as=0.312p ps=1.72u w=1.2u l=0.5u
X102 Local_Enc_0.NAND_5.SD Local_Enc_0.NAND_5.B VSS.t55 VSS.t54 nfet_03v3 ad=0.13p pd=1.02u as=0.22p ps=1.88u w=0.5u l=0.28u
X103 OUT- QB.t32 OUT.t40 VSS.t33 nfet_03v3 ad=0.156p pd=1.12u as=0.156p ps=1.12u w=0.6u l=0.5u
X104 VDD Ri.t1 Local_Enc_0.NAND_6.A VDD.t37 pfet_03v3 ad=0.22p pd=1.88u as=0.13p ps=1.02u w=0.5u l=0.28u
X105 OUT Q.t38 OUT+.t30 VSS.t29 nfet_03v3 ad=0.156p pd=1.12u as=0.156p ps=1.12u w=0.6u l=0.5u
X106 SD IM.t13 VSS.t88 VSS.t36 nfet_03v3 ad=0.312p pd=1.72u as=0.312p ps=1.72u w=1.2u l=0.5u
X107 SD IM_T.t15 OUT.t129 VSS.t99 nfet_03v3 ad=0.312p pd=1.72u as=0.312p ps=1.72u w=1.2u l=0.5u
X108 VSS IM.t14 SD.t63 VSS.t71 nfet_03v3 ad=0.312p pd=1.72u as=0.312p ps=1.72u w=1.2u l=0.5u
X109 OUT- QB.t33 OUT.t39 VSS.t22 nfet_03v3 ad=0.156p pd=1.12u as=0.156p ps=1.12u w=0.6u l=0.5u
X110 OUT QB.t34 OUT-.t33 VSS.t11 nfet_03v3 ad=0.156p pd=1.12u as=0.156p ps=1.12u w=0.6u l=0.5u
X111 OUT Q.t39 OUT+.t29 VSS.t30 nfet_03v3 ad=0.156p pd=1.12u as=0.156p ps=1.12u w=0.6u l=0.5u
X112 SD IM_T.t16 OUT.t134 VSS.t72 nfet_03v3 ad=0.312p pd=1.72u as=0.312p ps=1.72u w=1.2u l=0.5u
X113 OUT QB.t35 OUT-.t32 VSS.t6 nfet_03v3 ad=0.156p pd=1.12u as=0.156p ps=1.12u w=0.6u l=0.5u
X114 VDD Local_Enc_0.NAND_5.A Local_Enc_0.NAND_8.A VDD.t22 pfet_03v3 ad=0.22p pd=1.88u as=0.13p ps=1.02u w=0.5u l=0.28u
X115 OUT Q.t40 OUT+.t28 VSS.t32 nfet_03v3 ad=0.156p pd=1.12u as=0.264p ps=2.08u w=0.6u l=0.5u
X116 SD IM.t15 VSS.t89 VSS.t13 nfet_03v3 ad=0.312p pd=1.72u as=0.312p ps=1.72u w=1.2u l=0.5u
X117 OUT Q.t41 OUT+.t27 VSS.t20 nfet_03v3 ad=0.156p pd=1.12u as=0.156p ps=1.12u w=0.6u l=0.5u
X118 OUT Q.t42 OUT+.t26 VSS.t9 nfet_03v3 ad=0.156p pd=1.12u as=0.156p ps=1.12u w=0.6u l=0.5u
X119 OUT+ Q.t43 OUT.t158 VSS.t19 nfet_03v3 ad=0.156p pd=1.12u as=0.156p ps=1.12u w=0.6u l=0.5u
X120 VSS IM.t16 SD.t55 VSS.t105 nfet_03v3 ad=0.312p pd=1.72u as=0.312p ps=1.72u w=1.2u l=0.5u
X121 OUT Q.t44 OUT+.t24 VSS.t11 nfet_03v3 ad=0.156p pd=1.12u as=0.156p ps=1.12u w=0.6u l=0.5u
X122 OUT Q.t45 OUT+.t23 VSS.t6 nfet_03v3 ad=0.156p pd=1.12u as=0.156p ps=1.12u w=0.6u l=0.5u
X123 Local_Enc_0.NAND_5.A Local_Enc_0.NAND_6.A Local_Enc_0.NAND_6.SD VSS.t113 nfet_03v3 ad=0.22p pd=1.88u as=0.13p ps=1.02u w=0.5u l=0.28u
X124 Local_Enc_0.NAND_2.SD Ci.t2 VSS.t52 VSS.t51 nfet_03v3 ad=0.13p pd=1.02u as=0.22p ps=1.88u w=0.5u l=0.28u
X125 OUT IM_T.t17 SD.t31 VSS.t62 nfet_03v3 ad=0.312p pd=1.72u as=0.312p ps=1.72u w=1.2u l=0.5u
X126 OUT QB.t36 OUT-.t31 VSS.t8 nfet_03v3 ad=0.156p pd=1.12u as=0.156p ps=1.12u w=0.6u l=0.5u
X127 OUT QB.t37 OUT-.t30 VSS.t20 nfet_03v3 ad=0.156p pd=1.12u as=0.156p ps=1.12u w=0.6u l=0.5u
X128 SD IM_T.t18 OUT.t11 VSS.t18 nfet_03v3 ad=0.312p pd=1.72u as=0.312p ps=1.72u w=1.2u l=0.5u
X129 OUT- QB.t38 OUT.t38 VSS.t7 nfet_03v3 ad=0.156p pd=1.12u as=0.156p ps=1.12u w=0.6u l=0.5u
X130 OUT IM_T.t19 SD.t29 VSS.t3 nfet_03v3 ad=0.312p pd=1.72u as=0.312p ps=1.72u w=1.2u l=0.5u
X131 OUT- QB.t39 OUT.t37 VSS.t21 nfet_03v3 ad=0.156p pd=1.12u as=0.156p ps=1.12u w=0.6u l=0.5u
X132 OUT+ Q.t46 OUT.t87 VSS.t31 nfet_03v3 ad=0.156p pd=1.12u as=0.156p ps=1.12u w=0.6u l=0.5u
X133 OUT Q.t47 OUT+.t21 VSS.t8 nfet_03v3 ad=0.156p pd=1.12u as=0.156p ps=1.12u w=0.6u l=0.5u
X134 Local_Enc_0.NAND_6.B Ci.t3 Local_Enc_0.NAND_2.SD VSS.t83 nfet_03v3 ad=0.22p pd=1.88u as=0.13p ps=1.02u w=0.5u l=0.28u
X135 VSS IM.t17 SD.t5 VSS.t25 nfet_03v3 ad=0.312p pd=1.72u as=0.312p ps=1.72u w=1.2u l=0.5u
X136 OUT+ Q.t48 OUT.t3 VSS.t7 nfet_03v3 ad=0.156p pd=1.12u as=0.156p ps=1.12u w=0.6u l=0.5u
X137 OUT- QB.t40 OUT.t36 VSS.t33 nfet_03v3 ad=0.156p pd=1.12u as=0.156p ps=1.12u w=0.6u l=0.5u
X138 OUT+ Q.t49 OUT.t141 VSS.t10 nfet_03v3 ad=0.156p pd=1.12u as=0.156p ps=1.12u w=0.6u l=0.5u
X139 OUT QB.t41 OUT-.t26 VSS.t29 nfet_03v3 ad=0.156p pd=1.12u as=0.156p ps=1.12u w=0.6u l=0.5u
X140 OUT- QB.t42 OUT.t35 VSS.t31 nfet_03v3 ad=0.156p pd=1.12u as=0.156p ps=1.12u w=0.6u l=0.5u
X141 OUT- QB.t43 OUT.t34 VSS.t28 nfet_03v3 ad=0.264p pd=2.08u as=0.156p ps=1.12u w=0.6u l=0.5u
X142 OUT- QB.t44 OUT.t33 VSS.t10 nfet_03v3 ad=0.156p pd=1.12u as=0.156p ps=1.12u w=0.6u l=0.5u
X143 OUT- QB.t45 OUT.t32 VSS.t22 nfet_03v3 ad=0.156p pd=1.12u as=0.156p ps=1.12u w=0.6u l=0.5u
X144 SD IM.t18 VSS.t82 VSS.t81 nfet_03v3 ad=0.312p pd=1.72u as=0.312p ps=1.72u w=1.2u l=0.5u
X145 OUT Q.t50 OUT+.t18 VSS.t30 nfet_03v3 ad=0.156p pd=1.12u as=0.156p ps=1.12u w=0.6u l=0.5u
X146 OUT Q.t51 OUT+.t17 VSS.t32 nfet_03v3 ad=0.156p pd=1.12u as=0.264p ps=2.08u w=0.6u l=0.5u
X147 OUT Q.t52 OUT+.t16 VSS.t9 nfet_03v3 ad=0.156p pd=1.12u as=0.156p ps=1.12u w=0.6u l=0.5u
X148 OUT+ Q.t53 OUT.t156 VSS.t19 nfet_03v3 ad=0.156p pd=1.12u as=0.156p ps=1.12u w=0.6u l=0.5u
X149 OUT+ Q.t54 OUT.t157 VSS.t28 nfet_03v3 ad=0.264p pd=2.08u as=0.156p ps=1.12u w=0.6u l=0.5u
X150 SD IM_T.t20 OUT.t8 VSS.t12 nfet_03v3 ad=0.312p pd=1.72u as=0.312p ps=1.72u w=1.2u l=0.5u
X151 Local_Enc_0.NAND_3.SD Ri.t2 VSS.t67 VSS.t66 nfet_03v3 ad=0.13p pd=1.02u as=0.22p ps=1.88u w=0.5u l=0.28u
X152 Local_Enc_0.NAND_1.SD Local_Enc_0.NAND_1.B VSS.t17 VSS.t16 nfet_03v3 ad=0.13p pd=1.02u as=0.22p ps=1.88u w=0.5u l=0.28u
X153 Local_Enc_0.NAND_5.B Local_Enc_0.NAND_1.B VDD.t4 VDD.t3 pfet_03v3 ad=0.13p pd=1.02u as=0.22p ps=1.88u w=0.5u l=0.28u
X154 SD IM_T.t21 OUT.t17 VSS.t23 nfet_03v3 ad=0.312p pd=1.72u as=0.312p ps=1.72u w=1.2u l=0.5u
X155 Local_Enc_0.NAND_6.A Ri.t3 Local_Enc_0.NAND_3.SD VSS.t59 nfet_03v3 ad=0.22p pd=1.88u as=0.13p ps=1.02u w=0.5u l=0.28u
X156 OUT+ Q.t55 OUT.t99 VSS.t21 nfet_03v3 ad=0.156p pd=1.12u as=0.156p ps=1.12u w=0.6u l=0.5u
X157 OUT IM_T.t22 SD.t26 VSS.t24 nfet_03v3 ad=0.312p pd=1.72u as=0.312p ps=1.72u w=1.2u l=0.5u
X158 VSS IM.t19 SD.t49 VSS.t92 nfet_03v3 ad=0.312p pd=1.72u as=0.312p ps=1.72u w=1.2u l=0.5u
X159 SD IM_T.t23 OUT.t93 VSS.t37 nfet_03v3 ad=0.312p pd=1.72u as=0.528p ps=3.28u w=1.2u l=0.5u
X160 OUT QB.t46 OUT-.t21 VSS.t29 nfet_03v3 ad=0.156p pd=1.12u as=0.156p ps=1.12u w=0.6u l=0.5u
X161 OUT QB.t47 OUT-.t20 VSS.t6 nfet_03v3 ad=0.156p pd=1.12u as=0.156p ps=1.12u w=0.6u l=0.5u
X162 OUT QB.t48 OUT-.t19 VSS.t11 nfet_03v3 ad=0.156p pd=1.12u as=0.156p ps=1.12u w=0.6u l=0.5u
X163 VSS IM.t20 SD.t10 VSS.t78 nfet_03v3 ad=0.312p pd=1.72u as=0.312p ps=1.72u w=1.2u l=0.5u
X164 OUT IM_T.t24 SD.t24 VSS.t53 nfet_03v3 ad=0.312p pd=1.72u as=0.312p ps=1.72u w=1.2u l=0.5u
X165 VDD Local_Enc_0.NAND_8.A Local_Enc_0.NAND_4.B VDD.t19 pfet_03v3 ad=0.22p pd=1.88u as=0.13p ps=1.02u w=0.5u l=0.28u
X166 Local_Enc_0.NAND_8.A Local_Enc_0.NAND_5.A Local_Enc_0.NAND_5.SD VSS.t50 nfet_03v3 ad=0.22p pd=1.88u as=0.13p ps=1.02u w=0.5u l=0.28u
X167 SD IM.t21 VSS.t120 VSS.t90 nfet_03v3 ad=0.312p pd=1.72u as=0.312p ps=1.72u w=1.2u l=0.5u
X168 OUT Q.t56 OUT+.t12 VSS.t20 nfet_03v3 ad=0.156p pd=1.12u as=0.156p ps=1.12u w=0.6u l=0.5u
X169 OUT Q.t57 OUT+.t11 VSS.t11 nfet_03v3 ad=0.156p pd=1.12u as=0.156p ps=1.12u w=0.6u l=0.5u
X170 OUT QB.t49 OUT-.t18 VSS.t30 nfet_03v3 ad=0.156p pd=1.12u as=0.156p ps=1.12u w=0.6u l=0.5u
X171 Local_Enc_0.NAND_4.B Local_Enc_0.NAND_8.A VDD.t18 VDD.t17 pfet_03v3 ad=0.13p pd=1.02u as=0.22p ps=1.88u w=0.5u l=0.28u
X172 Local_Enc_0.NAND_1.B Ri-1.t0 VDD.t31 VDD.t30 pfet_03v3 ad=0.13p pd=1.02u as=0.22p ps=1.88u w=0.5u l=0.28u
X173 Local_Enc_0.NAND_0.SD Ri-1.t1 VSS.t65 VSS.t64 nfet_03v3 ad=0.13p pd=1.02u as=0.22p ps=1.88u w=0.5u l=0.28u
X174 OUT QB.t50 OUT-.t17 VSS.t8 nfet_03v3 ad=0.156p pd=1.12u as=0.156p ps=1.12u w=0.6u l=0.5u
X175 OUT IM_T.t25 SD.t23 VSS.t56 nfet_03v3 ad=0.528p pd=3.28u as=0.312p ps=1.72u w=1.2u l=0.5u
X176 OUT+ Q.t58 OUT.t96 VSS.t33 nfet_03v3 ad=0.156p pd=1.12u as=0.156p ps=1.12u w=0.6u l=0.5u
X177 OUT QB.t51 OUT-.t16 VSS.t20 nfet_03v3 ad=0.156p pd=1.12u as=0.156p ps=1.12u w=0.6u l=0.5u
X178 OUT QB.t52 OUT-.t15 VSS.t9 nfet_03v3 ad=0.156p pd=1.12u as=0.156p ps=1.12u w=0.6u l=0.5u
X179 OUT- QB.t53 OUT.t31 VSS.t7 nfet_03v3 ad=0.156p pd=1.12u as=0.156p ps=1.12u w=0.6u l=0.5u
X180 SD IM.t22 VSS.t119 VSS.t111 nfet_03v3 ad=0.312p pd=1.72u as=0.312p ps=1.72u w=1.2u l=0.5u
X181 OUT- QB.t54 OUT.t30 VSS.t33 nfet_03v3 ad=0.156p pd=1.12u as=0.156p ps=1.12u w=0.6u l=0.5u
X182 VDD Ri-1.t2 Local_Enc_0.NAND_1.B VDD.t11 pfet_03v3 ad=0.22p pd=1.88u as=0.13p ps=1.02u w=0.5u l=0.28u
X183 Local_Enc_0.NAND_1.B Ri-1.t3 Local_Enc_0.NAND_0.SD VSS.t57 nfet_03v3 ad=0.22p pd=1.88u as=0.13p ps=1.02u w=0.5u l=0.28u
X184 VSS IM.t23 SD.t6 VSS.t68 nfet_03v3 ad=0.312p pd=1.72u as=0.312p ps=1.72u w=1.2u l=0.5u
X185 OUT+ Q.t59 OUT.t85 VSS.t31 nfet_03v3 ad=0.156p pd=1.12u as=0.156p ps=1.12u w=0.6u l=0.5u
X186 OUT+ Q.t60 OUT.t1 VSS.t7 nfet_03v3 ad=0.156p pd=1.12u as=0.156p ps=1.12u w=0.6u l=0.5u
X187 SD IM.t24 VSS.t101 VSS.t91 nfet_03v3 ad=0.312p pd=1.72u as=0.312p ps=1.72u w=1.2u l=0.5u
X188 OUT+ Q.t61 OUT.t155 VSS.t22 nfet_03v3 ad=0.156p pd=1.12u as=0.156p ps=1.12u w=0.6u l=0.5u
X189 OUT IM_T.t26 SD.t22 VSS.t40 nfet_03v3 ad=0.312p pd=1.72u as=0.312p ps=1.72u w=1.2u l=0.5u
X190 OUT+ Q.t62 OUT.t98 VSS.t10 nfet_03v3 ad=0.156p pd=1.12u as=0.156p ps=1.12u w=0.6u l=0.5u
X191 OUT+ Q.t63 OUT.t94 VSS.t21 nfet_03v3 ad=0.156p pd=1.12u as=0.156p ps=1.12u w=0.6u l=0.5u
X192 OUT QB.t55 OUT-.t12 VSS.t32 nfet_03v3 ad=0.156p pd=1.12u as=0.264p ps=2.08u w=0.6u l=0.5u
X193 OUT- QB.t56 OUT.t29 VSS.t31 nfet_03v3 ad=0.156p pd=1.12u as=0.156p ps=1.12u w=0.6u l=0.5u
X194 OUT- QB.t57 OUT.t28 VSS.t19 nfet_03v3 ad=0.156p pd=1.12u as=0.156p ps=1.12u w=0.6u l=0.5u
X195 OUT- QB.t58 OUT.t27 VSS.t28 nfet_03v3 ad=0.264p pd=2.08u as=0.156p ps=1.12u w=0.6u l=0.5u
X196 OUT- QB.t59 OUT.t26 VSS.t22 nfet_03v3 ad=0.156p pd=1.12u as=0.156p ps=1.12u w=0.6u l=0.5u
X197 OUT- QB.t60 OUT.t25 VSS.t10 nfet_03v3 ad=0.156p pd=1.12u as=0.156p ps=1.12u w=0.6u l=0.5u
X198 OUT QB.t61 OUT-.t6 VSS.t6 nfet_03v3 ad=0.156p pd=1.12u as=0.156p ps=1.12u w=0.6u l=0.5u
X199 OUT Q.t64 OUT+.t4 VSS.t32 nfet_03v3 ad=0.156p pd=1.12u as=0.264p ps=2.08u w=0.6u l=0.5u
X200 OUT+ Q.t65 OUT.t12 VSS.t19 nfet_03v3 ad=0.156p pd=1.12u as=0.156p ps=1.12u w=0.6u l=0.5u
X201 SD IM_T.t27 OUT.t125 VSS.t74 nfet_03v3 ad=0.312p pd=1.72u as=0.312p ps=1.72u w=1.2u l=0.5u
X202 OUT QB.t62 OUT-.t5 VSS.t30 nfet_03v3 ad=0.156p pd=1.12u as=0.156p ps=1.12u w=0.6u l=0.5u
X203 OUT QB.t63 OUT-.t4 VSS.t8 nfet_03v3 ad=0.156p pd=1.12u as=0.156p ps=1.12u w=0.6u l=0.5u
X204 SD IM.t25 VSS.t100 VSS.t99 nfet_03v3 ad=0.312p pd=1.72u as=0.312p ps=1.72u w=1.2u l=0.5u
X205 OUT QB.t64 OUT-.t3 VSS.t9 nfet_03v3 ad=0.156p pd=1.12u as=0.156p ps=1.12u w=0.6u l=0.5u
X206 OUT Q.t66 OUT+.t2 VSS.t29 nfet_03v3 ad=0.156p pd=1.12u as=0.156p ps=1.12u w=0.6u l=0.5u
X207 OUT IM_T.t28 SD.t20 VSS.t71 nfet_03v3 ad=0.312p pd=1.72u as=0.312p ps=1.72u w=1.2u l=0.5u
X208 SD IM.t26 VSS.t73 VSS.t72 nfet_03v3 ad=0.312p pd=1.72u as=0.312p ps=1.72u w=1.2u l=0.5u
X209 SD IM_T.t29 OUT.t9 VSS.t13 nfet_03v3 ad=0.312p pd=1.72u as=0.312p ps=1.72u w=1.2u l=0.5u
X210 OUT QB.t65 OUT-.t2 VSS.t29 nfet_03v3 ad=0.156p pd=1.12u as=0.156p ps=1.12u w=0.6u l=0.5u
X211 OUT QB.t66 OUT-.t1 VSS.t11 nfet_03v3 ad=0.156p pd=1.12u as=0.156p ps=1.12u w=0.6u l=0.5u
X212 VSS IM.t27 SD.t9 VSS.t62 nfet_03v3 ad=0.312p pd=1.72u as=0.312p ps=1.72u w=1.2u l=0.5u
X213 OUT- QB.t67 OUT.t24 VSS.t28 nfet_03v3 ad=0.264p pd=2.08u as=0.156p ps=1.12u w=0.6u l=0.5u
X214 VDD Local_Enc_0.NAND_8.A Q.t1 VDD.t14 pfet_03v3 ad=0.22p pd=1.88u as=0.13p ps=1.02u w=0.5u l=0.28u
X215 OUT Q.t67 OUT+.t1 VSS.t20 nfet_03v3 ad=0.156p pd=1.12u as=0.156p ps=1.12u w=0.6u l=0.5u
X216 VSS IM.t28 SD.t1 VSS.t3 nfet_03v3 ad=0.312p pd=1.72u as=0.312p ps=1.72u w=1.2u l=0.5u
X217 SD IM.t29 VSS.t58 VSS.t18 nfet_03v3 ad=0.312p pd=1.72u as=0.312p ps=1.72u w=1.2u l=0.5u
X218 OUT Q.t68 OUT+.t0 VSS.t6 nfet_03v3 ad=0.156p pd=1.12u as=0.156p ps=1.12u w=0.6u l=0.5u
X219 OUT IM_T.t30 SD.t18 VSS.t0 nfet_03v3 ad=0.312p pd=1.72u as=0.312p ps=1.72u w=1.2u l=0.5u
X220 Local_Enc_0.NAND_5.B Local_Enc_0.NAND_1.B Local_Enc_0.NAND_1.SD VSS.t15 nfet_03v3 ad=0.22p pd=1.88u as=0.13p ps=1.02u w=0.5u l=0.28u
X221 Q QB.t68 VDD.t8 VDD.t7 pfet_03v3 ad=0.13p pd=1.02u as=0.22p ps=1.88u w=0.5u l=0.28u
X222 OUT IM_T.t31 SD.t17 VSS.t25 nfet_03v3 ad=0.312p pd=1.72u as=0.312p ps=1.72u w=1.2u l=0.5u
X223 Local_Enc_0.NAND_4.B Local_Enc_0.NAND_8.A Local_Enc_0.NAND_7.SD VSS.t48 nfet_03v3 ad=0.22p pd=1.88u as=0.13p ps=1.02u w=0.5u l=0.28u
X224 VDD Local_Enc_0.NAND_1.B Local_Enc_0.NAND_5.B VDD.t0 pfet_03v3 ad=0.22p pd=1.88u as=0.13p ps=1.02u w=0.5u l=0.28u
X225 VSS IM.t30 SD.t56 VSS.t108 nfet_03v3 ad=0.312p pd=1.72u as=0.312p ps=1.72u w=1.2u l=0.5u
X226 SD IM.t31 VSS.t98 VSS.t97 nfet_03v3 ad=0.312p pd=1.72u as=0.312p ps=1.72u w=1.2u l=0.5u
X227 Local_Enc_0.NAND_7.SD Local_Enc_0.NAND_8.A VSS.t47 VSS.t46 nfet_03v3 ad=0.13p pd=1.02u as=0.22p ps=1.88u w=0.5u l=0.28u
R0 QB.n4 QB.t14 26.9784
R1 QB.n20 QB.t29 24.9712
R2 QB.n35 QB.t58 24.9712
R3 QB.n50 QB.t43 24.9712
R4 QB.n5 QB.t67 24.9712
R5 QB.n65 QB.n64 21.4076
R6 QB.n67 QB.n19 21.1997
R7 QB.n66 QB.n34 20.1581
R8 QB.n65 QB.n49 20.1567
R9 QB.n22 QB.t23 15.1115
R10 QB.n23 QB.t57 15.1115
R11 QB.n26 QB.t34 15.1115
R12 QB.n27 QB.t4 15.1115
R13 QB.n30 QB.t20 15.1115
R14 QB.n31 QB.t38 15.1115
R15 QB.n37 QB.t50 15.1115
R16 QB.n38 QB.t19 15.1115
R17 QB.n41 QB.t66 15.1115
R18 QB.n42 QB.t31 15.1115
R19 QB.n45 QB.t47 15.1115
R20 QB.n46 QB.t3 15.1115
R21 QB.n52 QB.t36 15.1115
R22 QB.n53 QB.t6 15.1115
R23 QB.n56 QB.t48 15.1115
R24 QB.n57 QB.t16 15.1115
R25 QB.n60 QB.t35 15.1115
R26 QB.n61 QB.t53 15.1115
R27 QB.n7 QB.t63 15.1115
R28 QB.n8 QB.t28 15.1115
R29 QB.n11 QB.t9 15.1115
R30 QB.n12 QB.t39 15.1115
R31 QB.n15 QB.t61 15.1115
R32 QB.n16 QB.t12 15.1115
R33 QB.n4 QB.t68 14.7248
R34 QB.n20 QB.t46 14.4545
R35 QB.n21 QB.t45 14.4545
R36 QB.n24 QB.t64 14.4545
R37 QB.n25 QB.t30 14.4545
R38 QB.n28 QB.t24 14.4545
R39 QB.n29 QB.t40 14.4545
R40 QB.n32 QB.t62 14.4545
R41 QB.n33 QB.t27 14.4545
R42 QB.n35 QB.t13 14.4545
R43 QB.n36 QB.t8 14.4545
R44 QB.n39 QB.t25 14.4545
R45 QB.n40 QB.t60 14.4545
R46 QB.n43 QB.t51 14.4545
R47 QB.n44 QB.t5 14.4545
R48 QB.n47 QB.t22 14.4545
R49 QB.n48 QB.t56 14.4545
R50 QB.n50 QB.t41 14.4545
R51 QB.n51 QB.t33 14.4545
R52 QB.n54 QB.t52 14.4545
R53 QB.n55 QB.t21 14.4545
R54 QB.n58 QB.t15 14.4545
R55 QB.n59 QB.t32 14.4545
R56 QB.n62 QB.t49 14.4545
R57 QB.n63 QB.t18 14.4545
R58 QB.n5 QB.t65 14.4545
R59 QB.n6 QB.t59 14.4545
R60 QB.n9 QB.t11 14.4545
R61 QB.n10 QB.t44 14.4545
R62 QB.n13 QB.t37 14.4545
R63 QB.n14 QB.t54 14.4545
R64 QB.n17 QB.t10 14.4545
R65 QB.n18 QB.t42 14.4545
R66 QB.n34 QB.n33 12.7802
R67 QB.n49 QB.n48 12.7802
R68 QB.n64 QB.n63 12.7802
R69 QB.n19 QB.n18 12.7802
R70 QB.n34 QB.t55 12.1915
R71 QB.n49 QB.t17 12.1915
R72 QB.n64 QB.t7 12.1915
R73 QB.n19 QB.t26 12.1915
R74 QB.n21 QB.n20 9.86024
R75 QB.n22 QB.n21 9.86024
R76 QB.n23 QB.n22 9.86024
R77 QB.n24 QB.n23 9.86024
R78 QB.n25 QB.n24 9.86024
R79 QB.n26 QB.n25 9.86024
R80 QB.n27 QB.n26 9.86024
R81 QB.n28 QB.n27 9.86024
R82 QB.n29 QB.n28 9.86024
R83 QB.n30 QB.n29 9.86024
R84 QB.n31 QB.n30 9.86024
R85 QB.n32 QB.n31 9.86024
R86 QB.n33 QB.n32 9.86024
R87 QB.n36 QB.n35 9.86024
R88 QB.n37 QB.n36 9.86024
R89 QB.n38 QB.n37 9.86024
R90 QB.n39 QB.n38 9.86024
R91 QB.n40 QB.n39 9.86024
R92 QB.n41 QB.n40 9.86024
R93 QB.n42 QB.n41 9.86024
R94 QB.n43 QB.n42 9.86024
R95 QB.n44 QB.n43 9.86024
R96 QB.n45 QB.n44 9.86024
R97 QB.n46 QB.n45 9.86024
R98 QB.n47 QB.n46 9.86024
R99 QB.n48 QB.n47 9.86024
R100 QB.n51 QB.n50 9.86024
R101 QB.n52 QB.n51 9.86024
R102 QB.n53 QB.n52 9.86024
R103 QB.n54 QB.n53 9.86024
R104 QB.n55 QB.n54 9.86024
R105 QB.n56 QB.n55 9.86024
R106 QB.n57 QB.n56 9.86024
R107 QB.n58 QB.n57 9.86024
R108 QB.n59 QB.n58 9.86024
R109 QB.n60 QB.n59 9.86024
R110 QB.n61 QB.n60 9.86024
R111 QB.n62 QB.n61 9.86024
R112 QB.n63 QB.n62 9.86024
R113 QB.n6 QB.n5 9.86024
R114 QB.n7 QB.n6 9.86024
R115 QB.n8 QB.n7 9.86024
R116 QB.n9 QB.n8 9.86024
R117 QB.n10 QB.n9 9.86024
R118 QB.n11 QB.n10 9.86024
R119 QB.n12 QB.n11 9.86024
R120 QB.n13 QB.n12 9.86024
R121 QB.n14 QB.n13 9.86024
R122 QB.n15 QB.n14 9.86024
R123 QB.n16 QB.n15 9.86024
R124 QB.n17 QB.n16 9.86024
R125 QB.n18 QB.n17 9.86024
R126 QB.n68 QB 8.0222
R127 QB.n3 QB.n0 6.8765
R128 QB QB.n4 4.18544
R129 QB.n2 QB.t1 3.6405
R130 QB.n2 QB.n1 3.6405
R131 QB.n3 QB.n2 3.08447
R132 QB.n69 QB.n68 2.2505
R133 QB.n66 QB.n65 1.23881
R134 QB QB.n67 0.749429
R135 QB.n69 QB 0.241152
R136 QB.n67 QB.n66 0.182313
R137 QB QB.n3 0.17463
R138 QB QB.n69 0.112881
R139 QB.n68 QB 0.10226
R140 OUT.n228 OUT.t93 5.37963
R141 OUT.n243 OUT.n197 4.86963
R142 OUT OUT.n196 4.78467
R143 OUT.n70 OUT.n69 3.9342
R144 OUT.n65 OUT.n64 3.9339
R145 OUT.n190 OUT.n189 3.78102
R146 OUT.n228 OUT.n227 3.61615
R147 OUT.n230 OUT.n223 3.61615
R148 OUT.n232 OUT.n219 3.61615
R149 OUT.n234 OUT.n215 3.61615
R150 OUT.n236 OUT.n211 3.61615
R151 OUT.n238 OUT.n207 3.61615
R152 OUT.n240 OUT.n203 3.61615
R153 OUT.n242 OUT.n199 3.61615
R154 OUT.n126 OUT.n125 3.50723
R155 OUT.n105 OUT.n104 3.50723
R156 OUT.n84 OUT.n83 3.50723
R157 OUT.n70 OUT.n67 3.50518
R158 OUT.n127 OUT.n121 3.50518
R159 OUT.n106 OUT.n100 3.50518
R160 OUT.n85 OUT.n79 3.50518
R161 OUT.n241 OUT.n201 3.50463
R162 OUT.n239 OUT.n205 3.50463
R163 OUT.n237 OUT.n209 3.50463
R164 OUT.n235 OUT.n213 3.50463
R165 OUT.n233 OUT.n217 3.50463
R166 OUT.n231 OUT.n221 3.50463
R167 OUT.n229 OUT.n225 3.50463
R168 OUT.n22 OUT.n16 3.5031
R169 OUT.n21 OUT.n20 3.5031
R170 OUT.n36 OUT.n30 3.5031
R171 OUT.n35 OUT.n34 3.5031
R172 OUT.n53 OUT.n47 3.5031
R173 OUT.n52 OUT.n51 3.5031
R174 OUT.n65 OUT.n62 3.5031
R175 OUT.n22 OUT.n14 3.41897
R176 OUT.n21 OUT.n18 3.41897
R177 OUT.n36 OUT.n28 3.41897
R178 OUT.n35 OUT.n32 3.41897
R179 OUT.n53 OUT.n45 3.41897
R180 OUT.n52 OUT.n49 3.41897
R181 OUT.n126 OUT.n123 3.41897
R182 OUT.n127 OUT.n119 3.41897
R183 OUT.n105 OUT.n102 3.41897
R184 OUT.n106 OUT.n98 3.41897
R185 OUT.n84 OUT.n81 3.41897
R186 OUT.n85 OUT.n77 3.41897
R187 OUT.n196 OUT.n1 3.37397
R188 OUT.n195 OUT.n3 3.37397
R189 OUT.n190 OUT.n187 3.37397
R190 OUT.n88 OUT.n87 3.1505
R191 OUT.n91 OUT.n90 3.1505
R192 OUT.n109 OUT.n108 3.1505
R193 OUT.n112 OUT.n111 3.1505
R194 OUT.n130 OUT.n129 3.1505
R195 OUT.n133 OUT.n132 3.1505
R196 OUT.n136 OUT.n135 3.1505
R197 OUT.n6 OUT.n5 3.1505
R198 OUT.n148 OUT.n75 3.1505
R199 OUT.n149 OUT.n73 3.1505
R200 OUT.n145 OUT.n96 3.1505
R201 OUT.n146 OUT.n94 3.1505
R202 OUT.n142 OUT.n117 3.1505
R203 OUT.n143 OUT.n115 3.1505
R204 OUT.n9 OUT.n8 3.1505
R205 OUT.n140 OUT.n139 3.1505
R206 OUT.n155 OUT.n154 3.1505
R207 OUT.n156 OUT.n152 3.1505
R208 OUT.n58 OUT.n57 3.1505
R209 OUT.n59 OUT.n55 3.1505
R210 OUT.n41 OUT.n40 3.1505
R211 OUT.n42 OUT.n38 3.1505
R212 OUT.n12 OUT.n11 3.1505
R213 OUT.n25 OUT.n24 3.1505
R214 OUT.n164 OUT.n163 3.1505
R215 OUT.n161 OUT.n160 3.1505
R216 OUT.n171 OUT.n170 3.1505
R217 OUT.n168 OUT.n167 3.1505
R218 OUT.n178 OUT.n177 3.1505
R219 OUT.n175 OUT.n174 3.1505
R220 OUT.n185 OUT.n184 3.1505
R221 OUT.n182 OUT.n181 3.1505
R222 OUT.n1 OUT.t34 2.7305
R223 OUT.n1 OUT.n0 2.7305
R224 OUT.n3 OUT.t16 2.7305
R225 OUT.n3 OUT.n2 2.7305
R226 OUT.n181 OUT.t40 2.7305
R227 OUT.n181 OUT.n180 2.7305
R228 OUT.n184 OUT.t120 2.7305
R229 OUT.n184 OUT.n183 2.7305
R230 OUT.n174 OUT.t53 2.7305
R231 OUT.n174 OUT.n173 2.7305
R232 OUT.n177 OUT.t144 2.7305
R233 OUT.n177 OUT.n176 2.7305
R234 OUT.n167 OUT.t36 2.7305
R235 OUT.n167 OUT.n166 2.7305
R236 OUT.n170 OUT.t96 2.7305
R237 OUT.n170 OUT.n169 2.7305
R238 OUT.n160 OUT.t30 2.7305
R239 OUT.n160 OUT.n159 2.7305
R240 OUT.n163 OUT.t113 2.7305
R241 OUT.n163 OUT.n162 2.7305
R242 OUT.n16 OUT.t149 2.7305
R243 OUT.n16 OUT.n15 2.7305
R244 OUT.n14 OUT.t55 2.7305
R245 OUT.n14 OUT.n13 2.7305
R246 OUT.n20 OUT.t48 2.7305
R247 OUT.n20 OUT.n19 2.7305
R248 OUT.n18 OUT.t121 2.7305
R249 OUT.n18 OUT.n17 2.7305
R250 OUT.n30 OUT.t1 2.7305
R251 OUT.n30 OUT.n29 2.7305
R252 OUT.n28 OUT.t38 2.7305
R253 OUT.n28 OUT.n27 2.7305
R254 OUT.n34 OUT.t29 2.7305
R255 OUT.n34 OUT.n33 2.7305
R256 OUT.n32 OUT.t87 2.7305
R257 OUT.n32 OUT.n31 2.7305
R258 OUT.n47 OUT.t102 2.7305
R259 OUT.n47 OUT.n46 2.7305
R260 OUT.n45 OUT.t50 2.7305
R261 OUT.n45 OUT.n44 2.7305
R262 OUT.n51 OUT.t45 2.7305
R263 OUT.n51 OUT.n50 2.7305
R264 OUT.n49 OUT.t123 2.7305
R265 OUT.n49 OUT.n48 2.7305
R266 OUT.n24 OUT.t99 2.7305
R267 OUT.n24 OUT.n23 2.7305
R268 OUT.n11 OUT.t49 2.7305
R269 OUT.n11 OUT.n10 2.7305
R270 OUT.n38 OUT.t88 2.7305
R271 OUT.n38 OUT.n37 2.7305
R272 OUT.n40 OUT.t41 2.7305
R273 OUT.n40 OUT.n39 2.7305
R274 OUT.n55 OUT.t94 2.7305
R275 OUT.n55 OUT.n54 2.7305
R276 OUT.n57 OUT.t54 2.7305
R277 OUT.n57 OUT.n56 2.7305
R278 OUT.n152 OUT.t15 2.7305