* NGSPICE file created from AWG_MUX_MAGIC.ext - technology: gf180mcuC

.subckt pmos_3p3_ME7U2H a_28_n313# a_n28_n357# a_n116_n313# w_n202_n443#
X0 a_28_n313# a_n28_n357# a_n116_n313# w_n202_n443# pfet_03v3 ad=1.38p pd=7.14u as=1.38p ps=7.14u w=3.13u l=0.28u
.ends

.subckt pmos_3p3_MA2VAR w_n202_n430# a_28_n300# a_n28_n344# a_n116_n300#
X0 a_28_n300# a_n28_n344# a_n116_n300# w_n202_n430# pfet_03v3 ad=1.32p pd=6.88u as=1.32p ps=6.88u w=3u l=0.28u
.ends

.subckt nmos_3p3_876RT2 a_n196_n100# a_n52_n100# a_108_n100# a_52_n144# a_n108_n144#
+ VSUBS
X0 a_n52_n100# a_n108_n144# a_n196_n100# VSUBS nfet_03v3 ad=0.26p pd=1.52u as=0.44p ps=2.88u w=1u l=0.28u
X1 a_108_n100# a_52_n144# a_n52_n100# VSUBS nfet_03v3 ad=0.44p pd=2.88u as=0.26p ps=1.52u w=1u l=0.28u
.ends

.subckt nmos_3p3_3A6RT2 a_28_n100# a_n28_n144# a_n116_n100# VSUBS
X0 a_28_n100# a_n28_n144# a_n116_n100# VSUBS nfet_03v3 ad=0.44p pd=2.88u as=0.44p ps=2.88u w=1u l=0.28u
.ends

.subckt nmos_3p3_7WQWW2 a_108_n288# a_n196_n288# a_52_n332# a_n52_n288# a_n108_n332#
+ VSUBS
X0 a_108_n288# a_52_n332# a_n52_n288# VSUBS nfet_03v3 ad=1.27p pd=6.64u as=0.749p ps=3.4u w=2.88u l=0.28u
X1 a_n52_n288# a_n108_n332# a_n196_n288# VSUBS nfet_03v3 ad=0.749p pd=3.4u as=1.27p ps=6.64u w=2.88u l=0.28u
.ends

.subckt pmos_3p3_M22VAR a_52_n344# a_108_n300# a_n108_n344# a_n196_n300# a_n52_n300#
+ w_n282_n430#
X0 a_108_n300# a_52_n344# a_n52_n300# w_n282_n430# pfet_03v3 ad=1.32p pd=6.88u as=0.78p ps=3.52u w=3u l=0.28u
X1 a_n52_n300# a_n108_n344# a_n196_n300# w_n282_n430# pfet_03v3 ad=0.78p pd=3.52u as=1.32p ps=6.88u w=3u l=0.28u
.ends

.subckt pmos_3p3_MNS6FR w_n282_n505# a_108_n375# a_n196_n375# a_52_n419# a_n108_n419#
+ a_n52_n375#
X0 a_108_n375# a_52_n419# a_n52_n375# w_n282_n505# pfet_03v3 ad=1.65p pd=8.38u as=0.975p ps=4.27u w=3.75u l=0.28u
X1 a_n52_n375# a_n108_n419# a_n196_n375# w_n282_n505# pfet_03v3 ad=0.975p pd=4.27u as=1.65p ps=8.38u w=3.75u l=0.28u
.ends

.subckt nmos_3p3_M86RTJ a_28_n300# a_n28_n344# a_n116_n300# VSUBS
X0 a_28_n300# a_n28_n344# a_n116_n300# VSUBS nfet_03v3 ad=1.32p pd=6.88u as=1.32p ps=6.88u w=3u l=0.28u
.ends

.subckt nmos_3p3_276RTJ a_52_n344# a_108_n300# a_n108_n344# a_n196_n300# a_n52_n300#
+ VSUBS
X0 a_108_n300# a_52_n344# a_n52_n300# VSUBS nfet_03v3 ad=1.32p pd=6.88u as=0.78p ps=3.52u w=3u l=0.28u
X1 a_n52_n300# a_n108_n344# a_n196_n300# VSUBS nfet_03v3 ad=0.78p pd=3.52u as=1.32p ps=6.88u w=3u l=0.28u
.ends

.subckt nmos_3p3_2F3WC4 a_n796_n468# a_100_n468# a_n708_24# a_508_n512# a_n508_n468#
+ a_508_24# a_404_68# a_204_n512# a_n204_n468# a_n508_68# a_n100_24# a_n708_n512#
+ a_708_68# a_n796_68# a_n404_n512# a_n100_n512# a_n404_24# a_204_24# a_708_n468#
+ a_100_68# a_404_n468# a_n204_68# VSUBS
X0 a_n204_n468# a_n404_n512# a_n508_n468# VSUBS nfet_03v3 ad=0.52p pd=2.52u as=0.52p ps=2.52u w=2u l=1u
X1 a_n508_n468# a_n708_n512# a_n796_n468# VSUBS nfet_03v3 ad=0.52p pd=2.52u as=0.88p ps=4.88u w=2u l=1u
X2 a_100_68# a_n100_24# a_n204_68# VSUBS nfet_03v3 ad=0.52p pd=2.52u as=0.52p ps=2.52u w=2u l=1u
X3 a_404_n468# a_204_n512# a_100_n468# VSUBS nfet_03v3 ad=0.52p pd=2.52u as=0.52p ps=2.52u w=2u l=1u
X4 a_100_n468# a_n100_n512# a_n204_n468# VSUBS nfet_03v3 ad=0.52p pd=2.52u as=0.52p ps=2.52u w=2u l=1u
X5 a_708_n468# a_508_n512# a_404_n468# VSUBS nfet_03v3 ad=0.88p pd=4.88u as=0.52p ps=2.52u w=2u l=1u
X6 a_404_68# a_204_24# a_100_68# VSUBS nfet_03v3 ad=0.52p pd=2.52u as=0.52p ps=2.52u w=2u l=1u
X7 a_n204_68# a_n404_24# a_n508_68# VSUBS nfet_03v3 ad=0.52p pd=2.52u as=0.52p ps=2.52u w=2u l=1u
X8 a_708_68# a_508_24# a_404_68# VSUBS nfet_03v3 ad=0.88p pd=4.88u as=0.52p ps=2.52u w=2u l=1u
X9 a_n508_68# a_n708_24# a_n796_68# VSUBS nfet_03v3 ad=0.52p pd=2.52u as=0.88p ps=4.88u w=2u l=1u
.ends

.subckt nmos_3p3_NE3WC4 a_100_n200# a_n100_n244# a_n188_n200# VSUBS
X0 a_100_n200# a_n100_n244# a_n188_n200# VSUBS nfet_03v3 ad=0.88p pd=4.88u as=0.88p ps=4.88u w=2u l=1u
.ends

.subckt ppolyf_u_2VJWHK a_n100_500# a_n100_n602# w_n284_n786#
X0 a_n100_500# a_n100_n602# w_n284_n786# ppolyf_u r_width=1u r_length=5u
.ends

.subckt nmos_3p3_EA6RT2 a_212_n144# a_268_n100# a_n268_n144# a_n356_n100# a_n52_n100#
+ a_n212_n100# a_108_n100# a_52_n144# a_n108_n144# VSUBS
X0 a_n52_n100# a_n108_n144# a_n212_n100# VSUBS nfet_03v3 ad=0.26p pd=1.52u as=0.26p ps=1.52u w=1u l=0.28u
X1 a_n212_n100# a_n268_n144# a_n356_n100# VSUBS nfet_03v3 ad=0.26p pd=1.52u as=0.44p ps=2.88u w=1u l=0.28u
X2 a_108_n100# a_52_n144# a_n52_n100# VSUBS nfet_03v3 ad=0.26p pd=1.52u as=0.26p ps=1.52u w=1u l=0.28u
X3 a_268_n100# a_212_n144# a_108_n100# VSUBS nfet_03v3 ad=0.44p pd=2.88u as=0.26p ps=1.52u w=1u l=0.28u
.ends

.subckt pmos_3p3_5L6RD7 w_n230_n530# a_56_n400# a_n56_n444# a_n144_n400#
X0 a_56_n400# a_n56_n444# a_n144_n400# w_n230_n530# pfet_03v3 ad=1.76p pd=8.88u as=1.76p ps=8.88u w=4u l=0.56u
.ends

.subckt nmos_3p3_S75EG7 a_212_n144# a_n908_n144# a_268_n100# a_n1068_n144# a_1012_n144#
+ a_1068_n100# a_n1156_n100# a_n692_n100# a_n268_n144# a_372_n144# a_428_n100# a_n52_n100#
+ a_n852_n100# a_n428_n144# a_n1012_n100# a_532_n144# a_588_n100# a_n212_n100# a_n588_n144#
+ a_692_n144# a_748_n100# a_n372_n100# a_n748_n144# a_852_n144# a_108_n100# a_52_n144#
+ a_908_n100# a_n532_n100# a_n108_n144# VSUBS
X0 a_n52_n100# a_n108_n144# a_n212_n100# VSUBS nfet_03v3 ad=0.26p pd=1.52u as=0.26p ps=1.52u w=1u l=0.28u
X1 a_588_n100# a_532_n144# a_428_n100# VSUBS nfet_03v3 ad=0.26p pd=1.52u as=0.26p ps=1.52u w=1u l=0.28u
X2 a_n212_n100# a_n268_n144# a_n372_n100# VSUBS nfet_03v3 ad=0.26p pd=1.52u as=0.26p ps=1.52u w=1u l=0.28u
X3 a_n692_n100# a_n748_n144# a_n852_n100# VSUBS nfet_03v3 ad=0.26p pd=1.52u as=0.26p ps=1.52u w=1u l=0.28u
X4 a_1068_n100# a_1012_n144# a_908_n100# VSUBS nfet_03v3 ad=0.44p pd=2.88u as=0.26p ps=1.52u w=1u l=0.28u
X5 a_748_n100# a_692_n144# a_588_n100# VSUBS nfet_03v3 ad=0.26p pd=1.52u as=0.26p ps=1.52u w=1u l=0.28u
X6 a_108_n100# a_52_n144# a_n52_n100# VSUBS nfet_03v3 ad=0.26p pd=1.52u as=0.26p ps=1.52u w=1u l=0.28u
X7 a_268_n100# a_212_n144# a_108_n100# VSUBS nfet_03v3 ad=0.26p pd=1.52u as=0.26p ps=1.52u w=1u l=0.28u
X8 a_n372_n100# a_n428_n144# a_n532_n100# VSUBS nfet_03v3 ad=0.26p pd=1.52u as=0.26p ps=1.52u w=1u l=0.28u
X9 a_n852_n100# a_n908_n144# a_n1012_n100# VSUBS nfet_03v3 ad=0.26p pd=1.52u as=0.26p ps=1.52u w=1u l=0.28u
X10 a_428_n100# a_372_n144# a_268_n100# VSUBS nfet_03v3 ad=0.26p pd=1.52u as=0.26p ps=1.52u w=1u l=0.28u
X11 a_n1012_n100# a_n1068_n144# a_n1156_n100# VSUBS nfet_03v3 ad=0.26p pd=1.52u as=0.44p ps=2.88u w=1u l=0.28u
X12 a_908_n100# a_852_n144# a_748_n100# VSUBS nfet_03v3 ad=0.26p pd=1.52u as=0.26p ps=1.52u w=1u l=0.28u
X13 a_n532_n100# a_n588_n144# a_n692_n100# VSUBS nfet_03v3 ad=0.26p pd=1.52u as=0.26p ps=1.52u w=1u l=0.28u
.ends

.subckt nmos_3p3_5J7TC4 a_252_n100# a_n252_n144# a_n340_n100# a_n52_n100# a_52_n144#
+ VSUBS
X0 a_n52_n100# a_n252_n144# a_n340_n100# VSUBS nfet_03v3 ad=0.26p pd=1.52u as=0.44p ps=2.88u w=1u l=1u
X1 a_252_n100# a_52_n144# a_n52_n100# VSUBS nfet_03v3 ad=0.44p pd=2.88u as=0.26p ps=1.52u w=1u l=1u
.ends

.subckt pmos_3p3_MYZUAR w_n202_n530# a_28_n400# a_n28_n444# a_n116_n400#
X0 a_28_n400# a_n28_n444# a_n116_n400# w_n202_n530# pfet_03v3 ad=1.76p pd=8.88u as=1.76p ps=8.88u w=4u l=0.28u
.ends

.subckt nfet_03v3_DNL5WS a_n196_n100# a_n52_n100# a_108_n100# a_52_n144# a_n108_n144#
+ VSUBS
X0 a_n52_n100# a_n108_n144# a_n196_n100# VSUBS nfet_03v3 ad=0.26p pd=1.52u as=0.44p ps=2.88u w=1u l=0.28u
X1 a_108_n100# a_52_n144# a_n52_n100# VSUBS nfet_03v3 ad=0.44p pd=2.88u as=0.26p ps=1.52u w=1u l=0.28u
.ends

.subckt pfet_03v3_6DZECV a_n196_n100# a_n52_n100# w_n282_n230# a_108_n100# a_52_n144#
+ a_n108_n144#
X0 a_n52_n100# a_n108_n144# a_n196_n100# w_n282_n230# pfet_03v3 ad=0.26p pd=1.52u as=0.44p ps=2.88u w=1u l=0.28u
X1 a_108_n100# a_52_n144# a_n52_n100# w_n282_n230# pfet_03v3 ad=0.44p pd=2.88u as=0.26p ps=1.52u w=1u l=0.28u
.ends

.subckt nfet_03v3_DNQ7WS a_28_n100# a_n28_n144# a_n116_n100# VSUBS
X0 a_28_n100# a_n28_n144# a_n116_n100# VSUBS nfet_03v3 ad=0.44p pd=2.88u as=0.44p ps=2.88u w=1u l=0.28u
.ends

.subckt TGATE_PGA_MAGIC VDD VSS B CLK A
Xnfet_03v3_DNL5WS_0 A B A CLK CLK VSS nfet_03v3_DNL5WS
Xpfet_03v3_6DZECV_0 VDD a_n36_13# VDD VDD CLK CLK pfet_03v3_6DZECV
Xpfet_03v3_6DZECV_1 A B VDD A a_n36_13# a_n36_13# pfet_03v3_6DZECV
Xnfet_03v3_DNQ7WS_0 a_n36_13# CLK VSS VSS nfet_03v3_DNQ7WS
.ends

.subckt ppolyf_u_VRC5QE a_2280_n202# a_4240_100# a_1720_n202# a_2560_100# a_n2200_n202#
+ a_n1640_n202# a_n4160_100# a_3120_n202# a_n2480_100# a_2560_n202# a_n3040_n202#
+ a_880_100# a_n2480_n202# a_n1920_n202# a_n2200_100# a_600_100# a_3680_100# w_n4904_n386#
+ a_3400_n202# a_2840_n202# a_n3320_n202# a_n520_100# a_n2760_n202# a_3400_100# a_1720_100#
+ a_4240_n202# a_3680_n202# a_n4160_n202# a_n3320_100# a_n1640_100# a_n3600_n202#
+ a_40_n202# a_4520_100# a_4520_n202# a_2840_100# a_3960_n202# a_320_n202# a_n4440_n202#
+ a_n3880_n202# a_n4440_100# a_1160_100# a_40_100# a_n2760_100# a_600_n202# a_n1080_100#
+ a_n4720_n202# a_3960_100# a_n800_100# a_880_n202# a_2280_100# a_n240_n202# a_n3880_100#
+ a_2000_100# a_n3600_100# a_n1920_100# a_n520_n202# a_1160_n202# a_320_100# a_n1080_n202#
+ a_n240_100# a_3120_100# a_n4720_100# a_1440_100# a_n800_n202# a_2000_n202# a_1440_n202#
+ a_n1360_n202# a_n3040_100# a_n1360_100#
X0 a_600_100# a_600_n202# w_n4904_n386# ppolyf_u r_width=1u r_length=1u
X1 a_2280_100# a_2280_n202# w_n4904_n386# ppolyf_u r_width=1u r_length=1u
X2 a_n800_100# a_n800_n202# w_n4904_n386# ppolyf_u r_width=1u r_length=1u
X3 a_1160_100# a_1160_n202# w_n4904_n386# ppolyf_u r_width=1u r_length=1u
X4 a_n4160_100# a_n4160_n202# w_n4904_n386# ppolyf_u r_width=1u r_length=1u
X5 a_n240_100# a_n240_n202# w_n4904_n386# ppolyf_u r_width=1u r_length=1u
X6 a_n3600_100# a_n3600_n202# w_n4904_n386# ppolyf_u r_width=1u r_length=1u
X7 a_40_100# a_40_n202# w_n4904_n386# ppolyf_u r_width=1u r_length=1u
X8 a_n3040_100# a_n3040_n202# w_n4904_n386# ppolyf_u r_width=1u r_length=1u
X9 a_4520_100# a_4520_n202# w_n4904_n386# ppolyf_u r_width=1u r_length=1u
X10 a_n2480_100# a_n2480_n202# w_n4904_n386# ppolyf_u r_width=1u r_length=1u
X11 a_3960_100# a_3960_n202# w_n4904_n386# ppolyf_u r_width=1u r_length=1u
X12 a_n1360_100# a_n1360_n202# w_n4904_n386# ppolyf_u r_width=1u r_length=1u
X13 a_3400_100# a_3400_n202# w_n4904_n386# ppolyf_u r_width=1u r_length=1u
X14 a_2840_100# a_2840_n202# w_n4904_n386# ppolyf_u r_width=1u r_length=1u
X15 a_1720_100# a_1720_n202# w_n4904_n386# ppolyf_u r_width=1u r_length=1u
X16 a_n4720_100# a_n4720_n202# w_n4904_n386# ppolyf_u r_width=1u r_length=1u
X17 a_880_100# a_880_n202# w_n4904_n386# ppolyf_u r_width=1u r_length=1u
X18 a_320_100# a_320_n202# w_n4904_n386# ppolyf_u r_width=1u r_length=1u
X19 a_n1920_100# a_n1920_n202# w_n4904_n386# ppolyf_u r_width=1u r_length=1u
X20 a_4240_100# a_4240_n202# w_n4904_n386# ppolyf_u r_width=1u r_length=1u
X21 a_n2200_100# a_n2200_n202# w_n4904_n386# ppolyf_u r_width=1u r_length=1u
X22 a_3680_100# a_3680_n202# w_n4904_n386# ppolyf_u r_width=1u r_length=1u
X23 a_3120_100# a_3120_n202# w_n4904_n386# ppolyf_u r_width=1u r_length=1u
X24 a_n1080_100# a_n1080_n202# w_n4904_n386# ppolyf_u r_width=1u r_length=1u
X25 a_2560_100# a_2560_n202# w_n4904_n386# ppolyf_u r_width=1u r_length=1u
X26 a_2000_100# a_2000_n202# w_n4904_n386# ppolyf_u r_width=1u r_length=1u
X27 a_1440_100# a_1440_n202# w_n4904_n386# ppolyf_u r_width=1u r_length=1u
X28 a_n4440_100# a_n4440_n202# w_n4904_n386# ppolyf_u r_width=1u r_length=1u
X29 a_n520_100# a_n520_n202# w_n4904_n386# ppolyf_u r_width=1u r_length=1u
X30 a_n3880_100# a_n3880_n202# w_n4904_n386# ppolyf_u r_width=1u r_length=1u
X31 a_n3320_100# a_n3320_n202# w_n4904_n386# ppolyf_u r_width=1u r_length=1u
X32 a_n2760_100# a_n2760_n202# w_n4904_n386# ppolyf_u r_width=1u r_length=1u
X33 a_n1640_100# a_n1640_n202# w_n4904_n386# ppolyf_u r_width=1u r_length=1u
.ends

.subckt pag_res_magic A B G E C H F D VDD
Xppolyf_u_VRC5QE_0 m1_7017_3724# F m1_5335_5023# m1_7297_4056# m1_2973_3724# m1_6642_3724#
+ m1_577_3724# m1_8322_3724# m1_2680_4056# m1_7575_3720# C m1_5335_4371# m1_2973_3724#
+ m1_3095_3720# m1_2973_4056# m1_6642_4376# m1_8882_4056# VDD H D m1_3842_3724# m1_3095_5024#
+ m1_855_5023# m1_8415_4029# m1_6737_4056# m1_8977_3724# F m1_577_3724# m1_1695_4029#
+ m1_3512_4056# G m1_5057_3724# VDD VDD m1_7992_4056# m1_8977_3724# m1_5057_3724#
+ m1_577_3724# G E m1_6175_4029# m1_5242_4056# m1_2680_4056# m1_5802_3724# m1_3935_4029#
+ VDD m1_7575_5024# m1_4402_4056# m1_6082_3724# m1_7297_4056# m1_4497_3724# m1_2162_4376#
+ m1_6737_4056# G m1_2973_4056# m1_4497_3724# m1_8322_3724# m1_5335_4029# m1_6082_3724#
+ m1_5242_4056# m1_7575_4371# VDD m1_6642_4056# m1_5802_3724# m1_7017_3724# m1_6642_3724#
+ m1_3842_3724# m1_2162_4056# m1_3095_4371# ppolyf_u_VRC5QE
Xppolyf_u_VRC5QE_1 m1_7017_5028# m1_8966_5360# m1_5335_4029# m1_7297_5360# m1_2537_5028#
+ m1_3512_4920# E m1_7575_4677# m1_2257_5360# m1_7575_5024# m1_2162_5028# m1_6036_5360#
+ m1_2537_5028# m1_3095_5024# m1_2817_5360# m1_8882_5360# m1_8882_5360# VDD m1_9442_4708#
+ m1_7992_4920# m1_1695_5024# m1_4486_5360# m1_577_3724# m1_8602_5360# m1_6737_5360#
+ D m1_8882_5028# m1_855_5023# G m1_3562_5360# m1_714_4708# m1_5242_5028# VDD VDD
+ m1_8042_5360# m1_7575_3720# m1_5335_5023# E m1_2162_4708# E a_5435_4665# m1_5057_5360#
+ m1_2257_5360# m1_6642_4708# m1_4122_5360# VDD m1_8966_5360# m1_4402_5360# m1_5194_4708#
+ m1_7297_5360# m1_5242_5028# m1_4402_5360# m1_6737_5360# m1_4122_5360# m1_2817_5360#
+ m1_3095_3720# m1_6175_5024# m1_5057_5360# m1_4962_4708# m1_4486_5360# m1_8135_5333#
+ VDD m1_8042_5360# m1_4402_5028# m1_7017_5028# m1_6642_5028# m1_3095_4677# m1_3562_5360#
+ m1_3655_5333# ppolyf_u_VRC5QE
Xppolyf_u_VRC5QE_2 m1_7017_4376# m1_9442_4708# m1_6175_4029# m1_7575_4677# m1_4122_5360#
+ m1_4402_4056# G m1_8137_4376# m1_4122_5360# m1_7575_4371# m1_2162_4376# m1_6082_4708#
+ m1_4122_5360# m1_3095_4371# m1_4122_5360# m1_6642_5028# m1_7992_4920# VDD m1_8137_4376#
+ m1_8882_4056# m1_1417_4376# m1_3655_5333# m1_1695_4029# B m1_6175_5024# B m1_7992_4056#
+ G m1_3842_4708# m1_4402_5028# m1_1417_4376# m1_5242_4376# VDD VDD m1_8882_5028#
+ m1_8415_4029# m1_5335_4371# A m1_2162_4056# m1_714_4708# m1_8322_4708# m1_5194_4708#
+ m1_1695_5024# m1_6642_4056# m1_6082_4708# VDD m1_8135_5333# m1_3512_4920# m1_5897_4376#
+ m1_8602_5360# m1_5242_4376# m1_2162_5028# m1_6036_5360# C m1_3095_4677# m1_3935_4029#
+ m1_5897_4376# a_5435_4665# m1_3657_4376# m1_4962_4708# m1_8322_4708# VDD m1_6642_4708#
+ m1_3512_4056# m1_7017_4376# m1_6642_4376# m1_3657_4376# m1_2162_4708# m1_3842_4708#
+ ppolyf_u_VRC5QE
.ends

.subckt pga_res_magice_parallel VDD C B D H G E F A
Xpag_res_magic_0 A B G E C H F D VDD pag_res_magic
Xpag_res_magic_1 A B G E C H F D VDD pag_res_magic
.ends

.subckt pmos_3p3_MAEVAR a_28_n668# a_n116_n668# a_28_68# a_n28_n712# a_n28_24# w_n202_n798#
+ a_n116_68#
X0 a_28_68# a_n28_24# a_n116_68# w_n202_n798# pfet_03v3 ad=1.32p pd=6.88u as=1.32p ps=6.88u w=3u l=0.28u
X1 a_28_n668# a_n28_n712# a_n116_n668# w_n202_n798# pfet_03v3 ad=1.32p pd=6.88u as=1.32p ps=6.88u w=3u l=0.28u
.ends

.subckt pmos_3p3_MES6FR w_n202_n505# a_28_n375# a_n116_n375# a_n28_n419#
X0 a_28_n375# a_n28_n419# a_n116_n375# w_n202_n505# pfet_03v3 ad=1.65p pd=8.38u as=1.65p ps=8.38u w=3.75u l=0.28u
.ends

.subckt pmos_3p3_RKK9DS a_n52_n50# a_n1172_n50# a_428_n50# a_908_n50# a_588_n50# a_1068_n50#
+ a_n428_n94# a_n588_n94# a_n908_n94# a_n1068_n94# a_n212_n50# a_532_n94# a_n372_n50#
+ a_1012_n94# a_n852_n50# a_1172_n94# a_692_n94# a_52_n94# w_n1402_n180# a_108_n50#
+ a_268_n50# a_748_n50# a_1228_n50# a_n1316_n50# a_n108_n94# a_n268_n94# a_n748_n94#
+ a_n1228_n94# a_212_n94# a_372_n94# a_n532_n50# a_n692_n50# a_n1012_n50# a_852_n94#
X0 a_1228_n50# a_1172_n94# a_1068_n50# w_n1402_n180# pfet_03v3 ad=0.22p pd=1.88u as=0.13p ps=1.02u w=0.5u l=0.28u
X1 a_108_n50# a_52_n94# a_n52_n50# w_n1402_n180# pfet_03v3 ad=0.13p pd=1.02u as=0.13p ps=1.02u w=0.5u l=0.28u
X2 a_268_n50# a_212_n94# a_108_n50# w_n1402_n180# pfet_03v3 ad=0.13p pd=1.02u as=0.13p ps=1.02u w=0.5u l=0.28u
X3 a_n372_n50# a_n428_n94# a_n532_n50# w_n1402_n180# pfet_03v3 ad=0.13p pd=1.02u as=0.13p ps=1.02u w=0.5u l=0.28u
X4 a_n852_n50# a_n908_n94# a_n1012_n50# w_n1402_n180# pfet_03v3 ad=0.13p pd=1.02u as=0.13p ps=1.02u w=0.5u l=0.28u
X5 a_428_n50# a_372_n94# a_268_n50# w_n1402_n180# pfet_03v3 ad=0.13p pd=1.02u as=0.13p ps=1.02u w=0.5u l=0.28u
X6 a_n1012_n50# a_n1068_n94# a_n1172_n50# w_n1402_n180# pfet_03v3 ad=0.13p pd=1.02u as=0.13p ps=1.02u w=0.5u l=0.28u
X7 a_908_n50# a_852_n94# a_748_n50# w_n1402_n180# pfet_03v3 ad=0.13p pd=1.02u as=0.13p ps=1.02u w=0.5u l=0.28u
X8 a_n532_n50# a_n588_n94# a_n692_n50# w_n1402_n180# pfet_03v3 ad=0.13p pd=1.02u as=0.13p ps=1.02u w=0.5u l=0.28u
X9 a_n52_n50# a_n108_n94# a_n212_n50# w_n1402_n180# pfet_03v3 ad=0.13p pd=1.02u as=0.13p ps=1.02u w=0.5u l=0.28u
X10 a_588_n50# a_532_n94# a_428_n50# w_n1402_n180# pfet_03v3 ad=0.13p pd=1.02u as=0.13p ps=1.02u w=0.5u l=0.28u
X11 a_n1172_n50# a_n1228_n94# a_n1316_n50# w_n1402_n180# pfet_03v3 ad=0.13p pd=1.02u as=0.22p ps=1.88u w=0.5u l=0.28u
X12 a_n212_n50# a_n268_n94# a_n372_n50# w_n1402_n180# pfet_03v3 ad=0.13p pd=1.02u as=0.13p ps=1.02u w=0.5u l=0.28u
X13 a_n692_n50# a_n748_n94# a_n852_n50# w_n1402_n180# pfet_03v3 ad=0.13p pd=1.02u as=0.13p ps=1.02u w=0.5u l=0.28u
X14 a_1068_n50# a_1012_n94# a_908_n50# w_n1402_n180# pfet_03v3 ad=0.13p pd=1.02u as=0.13p ps=1.02u w=0.5u l=0.28u
X15 a_748_n50# a_692_n94# a_588_n50# w_n1402_n180# pfet_03v3 ad=0.13p pd=1.02u as=0.13p ps=1.02u w=0.5u l=0.28u
.ends

.subckt cap_mim_2p0fF_3FUNHB m4_n2340_n4500# m4_n2220_n4380#
X0 m4_n2220_n4380# m4_n2340_n4500# cap_mim_2f0_m4m5_noshield c_width=21u c_length=21u
X1 m4_n2220_n4380# m4_n2340_n4500# cap_mim_2f0_m4m5_noshield c_width=21u c_length=21u
.ends

.subckt pmos_3p3_5UYQD7 a_n52_n400# a_164_n400# a_n164_n444# a_n252_n400# a_52_n444#
+ w_n338_n530#
X0 a_n52_n400# a_n164_n444# a_n252_n400# w_n338_n530# pfet_03v3 ad=1.04p pd=4.52u as=1.76p ps=8.88u w=4u l=0.56u
X1 a_164_n400# a_52_n444# a_n52_n400# w_n338_n530# pfet_03v3 ad=1.76p pd=8.88u as=1.04p ps=4.52u w=4u l=0.56u
.ends

.subckt pmos_3p3_5LZQD7 a_488_n400# a_n488_n444# a_n160_n400# a_376_n444# a_n576_n400#
+ a_272_n400# a_56_n400# a_n56_n444# a_n272_n444# a_160_n444# a_n376_n400# w_n662_n530#
X0 a_56_n400# a_n56_n444# a_n160_n400# w_n662_n530# pfet_03v3 ad=1.04p pd=4.52u as=1.04p ps=4.52u w=4u l=0.56u
X1 a_272_n400# a_160_n444# a_56_n400# w_n662_n530# pfet_03v3 ad=1.04p pd=4.52u as=1.04p ps=4.52u w=4u l=0.56u
X2 a_n160_n400# a_n272_n444# a_n376_n400# w_n662_n530# pfet_03v3 ad=1.04p pd=4.52u as=1.04p ps=4.52u w=4u l=0.56u
X3 a_488_n400# a_376_n444# a_272_n400# w_n662_n530# pfet_03v3 ad=1.76p pd=8.88u as=1.04p ps=4.52u w=4u l=0.56u
X4 a_n376_n400# a_n488_n444# a_n576_n400# w_n662_n530# pfet_03v3 ad=1.04p pd=4.52u as=1.76p ps=8.88u w=4u l=0.56u
.ends

.subckt pmos_3p3_5C3RD7 a_268_n444# a_n52_n400# a_n468_n400# a_380_n400# a_164_n400#
+ a_n164_n444# a_n380_n444# a_52_n444# a_n268_n400# w_n554_n530#
X0 a_n52_n400# a_n164_n444# a_n268_n400# w_n554_n530# pfet_03v3 ad=1.04p pd=4.52u as=1.04p ps=4.52u w=4u l=0.56u
X1 a_164_n400# a_52_n444# a_n52_n400# w_n554_n530# pfet_03v3 ad=1.04p pd=4.52u as=1.04p ps=4.52u w=4u l=0.56u
X2 a_380_n400# a_268_n444# a_164_n400# w_n554_n530# pfet_03v3 ad=1.76p pd=8.88u as=1.04p ps=4.52u w=4u l=0.56u
X3 a_n268_n400# a_n380_n444# a_n468_n400# w_n554_n530# pfet_03v3 ad=1.04p pd=4.52u as=1.76p ps=8.88u w=4u l=0.56u
.ends

.subckt pmos_3p3_HMY8L7 a_812_68# a_n268_68# a_n700_830# a_268_786# a_n484_830# w_n986_n1586#
+ a_164_n1456# a_n596_24# a_n596_n1500# a_n268_n694# a_n484_n694# a_n52_68# a_52_24#
+ a_n484_n1456# a_n700_n694# a_n52_830# a_n164_n738# a_n380_n738# a_380_830# a_n380_786#
+ a_812_n1456# a_484_n1500# a_n268_n1456# a_n900_n1456# a_52_n738# a_380_68# a_484_24#
+ a_n380_n1500# a_52_n1500# a_n484_68# a_n164_24# a_n52_n1456# a_596_n694# a_700_786#
+ a_268_n1500# a_n164_n1500# a_812_n694# a_n812_24# a_484_786# a_596_68# a_n52_n694#
+ a_n268_830# a_52_786# a_n900_830# a_n812_n1500# a_n900_n694# a_812_830# a_596_n1456#
+ a_n700_n1456# a_700_24# a_596_830# a_164_830# a_n812_786# a_n164_786# a_268_n738#
+ a_n596_n738# a_n596_786# a_484_n738# a_700_n1500# a_700_n738# a_n812_n738# a_n700_68#
+ a_268_24# a_164_n694# a_164_68# a_n380_24# a_380_n1456# a_380_n694# a_n900_68#
X0 a_n700_830# a_n812_786# a_n900_830# w_n986_n1586# pfet_03v3 ad=0.814p pd=3.65u as=1.38p ps=7.14u w=3.13u l=0.56u
X1 a_n700_68# a_n812_24# a_n900_68# w_n986_n1586# pfet_03v3 ad=0.814p pd=3.65u as=1.38p ps=7.14u w=3.13u l=0.56u
X2 a_n700_n1456# a_n812_n1500# a_n900_n1456# w_n986_n1586# pfet_03v3 ad=0.814p pd=3.65u as=1.38p ps=7.14u w=3.13u l=0.56u
X3 a_n484_68# a_n596_24# a_n700_68# w_n986_n1586# pfet_03v3 ad=0.814p pd=3.65u as=0.814p ps=3.65u w=3.13u l=0.56u
X4 a_n268_68# a_n380_24# a_n484_68# w_n986_n1586# pfet_03v3 ad=0.814p pd=3.65u as=0.814p ps=3.65u w=3.13u l=0.56u
X5 a_n484_n1456# a_n596_n1500# a_n700_n1456# w_n986_n1586# pfet_03v3 ad=0.814p pd=3.65u as=0.814p ps=3.65u w=3.13u l=0.56u
X6 a_n52_n694# a_n164_n738# a_n268_n694# w_n986_n1586# pfet_03v3 ad=0.814p pd=3.65u as=0.814p ps=3.65u w=3.13u l=0.56u
X7 a_n52_830# a_n164_786# a_n268_830# w_n986_n1586# pfet_03v3 ad=0.814p pd=3.65u as=0.814p ps=3.65u w=3.13u l=0.56u
X8 a_380_n1456# a_268_n1500# a_164_n1456# w_n986_n1586# pfet_03v3 ad=0.814p pd=3.65u as=0.814p ps=3.65u w=3.13u l=0.56u
X9 a_812_830# a_700_786# a_596_830# w_n986_n1586# pfet_03v3 ad=1.38p pd=7.14u as=0.814p ps=3.65u w=3.13u l=0.56u
X10 a_812_n694# a_700_n738# a_596_n694# w_n986_n1586# pfet_03v3 ad=1.38p pd=7.14u as=0.814p ps=3.65u w=3.13u l=0.56u
X11 a_n268_830# a_n380_786# a_n484_830# w_n986_n1586# pfet_03v3 ad=0.814p pd=3.65u as=0.814p ps=3.65u w=3.13u l=0.56u
X12 a_164_68# a_52_24# a_n52_68# w_n986_n1586# pfet_03v3 ad=0.814p pd=3.65u as=0.814p ps=3.65u w=3.13u l=0.56u
X13 a_n700_n694# a_n812_n738# a_n900_n694# w_n986_n1586# pfet_03v3 ad=0.814p pd=3.65u as=1.38p ps=7.14u w=3.13u l=0.56u
X14 a_n484_830# a_n596_786# a_n700_830# w_n986_n1586# pfet_03v3 ad=0.814p pd=3.65u as=0.814p ps=3.65u w=3.13u l=0.56u
X15 a_812_68# a_700_24# a_596_68# w_n986_n1586# pfet_03v3 ad=1.38p pd=7.14u as=0.814p ps=3.65u w=3.13u l=0.56u
X16 a_n268_n1456# a_n380_n1500# a_n484_n1456# w_n986_n1586# pfet_03v3 ad=0.814p pd=3.65u as=0.814p ps=3.65u w=3.13u l=0.56u
X17 a_n52_68# a_n164_24# a_n268_68# w_n986_n1586# pfet_03v3 ad=0.814p pd=3.65u as=0.814p ps=3.65u w=3.13u l=0.56u
X18 a_812_n1456# a_700_n1500# a_596_n1456# w_n986_n1586# pfet_03v3 ad=1.38p pd=7.14u as=0.814p ps=3.65u w=3.13u l=0.56u
X19 a_380_68# a_268_24# a_164_68# w_n986_n1586# pfet_03v3 ad=0.814p pd=3.65u as=0.814p ps=3.65u w=3.13u l=0.56u
X20 a_596_68# a_484_24# a_380_68# w_n986_n1586# pfet_03v3 ad=0.814p pd=3.65u as=0.814p ps=3.65u w=3.13u l=0.56u
X21 a_596_n694# a_484_n738# a_380_n694# w_n986_n1586# pfet_03v3 ad=0.814p pd=3.65u as=0.814p ps=3.65u w=3.13u l=0.56u
X22 a_380_830# a_268_786# a_164_830# w_n986_n1586# pfet_03v3 ad=0.814p pd=3.65u as=0.814p ps=3.65u w=3.13u l=0.56u
X23 a_164_n694# a_52_n738# a_n52_n694# w_n986_n1586# pfet_03v3 ad=0.814p pd=3.65u as=0.814p ps=3.65u w=3.13u l=0.56u
X24 a_380_n694# a_268_n738# a_164_n694# w_n986_n1586# pfet_03v3 ad=0.814p pd=3.65u as=0.814p ps=3.65u w=3.13u l=0.56u
X25 a_596_n1456# a_484_n1500# a_380_n1456# w_n986_n1586# pfet_03v3 ad=0.814p pd=3.65u as=0.814p ps=3.65u w=3.13u l=0.56u
X26 a_n484_n694# a_n596_n738# a_n700_n694# w_n986_n1586# pfet_03v3 ad=0.814p pd=3.65u as=0.814p ps=3.65u w=3.13u l=0.56u
X27 a_n52_n1456# a_n164_n1500# a_n268_n1456# w_n986_n1586# pfet_03v3 ad=0.814p pd=3.65u as=0.814p ps=3.65u w=3.13u l=0.56u
X28 a_164_n1456# a_52_n1500# a_n52_n1456# w_n986_n1586# pfet_03v3 ad=0.814p pd=3.65u as=0.814p ps=3.65u w=3.13u l=0.56u
X29 a_164_830# a_52_786# a_n52_830# w_n986_n1586# pfet_03v3 ad=0.814p pd=3.65u as=0.814p ps=3.65u w=3.13u l=0.56u
X30 a_n268_n694# a_n380_n738# a_n484_n694# w_n986_n1586# pfet_03v3 ad=0.814p pd=3.65u as=0.814p ps=3.65u w=3.13u l=0.56u
X31 a_596_830# a_484_786# a_380_830# w_n986_n1586# pfet_03v3 ad=0.814p pd=3.65u as=0.814p ps=3.65u w=3.13u l=0.56u
.ends

.subckt pmos_3p3_K823KY a_100_n50# a_n100_n94# a_n188_n50# w_n274_n180#
X0 a_100_n50# a_n100_n94# a_n188_n50# w_n274_n180# pfet_03v3 ad=0.22p pd=1.88u as=0.22p ps=1.88u w=0.5u l=1u
.ends

.subckt nmos_3p3_U56RT2 a_212_n144# a_268_n100# a_n268_n144# a_372_n144# a_428_n100#
+ a_n52_n100# a_n428_n144# a_n516_n100# a_n212_n100# a_n372_n100# a_108_n100# a_52_n144#
+ a_n108_n144# VSUBS
X0 a_n52_n100# a_n108_n144# a_n212_n100# VSUBS nfet_03v3 ad=0.26p pd=1.52u as=0.26p ps=1.52u w=1u l=0.28u
X1 a_n212_n100# a_n268_n144# a_n372_n100# VSUBS nfet_03v3 ad=0.26p pd=1.52u as=0.26p ps=1.52u w=1u l=0.28u
X2 a_108_n100# a_52_n144# a_n52_n100# VSUBS nfet_03v3 ad=0.26p pd=1.52u as=0.26p ps=1.52u w=1u l=0.28u
X3 a_268_n100# a_212_n144# a_108_n100# VSUBS nfet_03v3 ad=0.26p pd=1.52u as=0.26p ps=1.52u w=1u l=0.28u
X4 a_n372_n100# a_n428_n144# a_n516_n100# VSUBS nfet_03v3 ad=0.26p pd=1.52u as=0.44p ps=2.88u w=1u l=0.28u
X5 a_428_n100# a_372_n144# a_268_n100# VSUBS nfet_03v3 ad=0.44p pd=2.88u as=0.26p ps=1.52u w=1u l=0.28u
.ends

.subckt nmos_3p3_JE3WC4 a_708_n200# a_404_n200# a_n708_n244# a_n796_n200# a_100_n200#
+ a_n404_n244# a_n100_n244# a_n508_n200# a_n204_n200# a_508_n244# a_204_n244# VSUBS
X0 a_n508_n200# a_n708_n244# a_n796_n200# VSUBS nfet_03v3 ad=0.52p pd=2.52u as=0.88p ps=4.88u w=2u l=1u
X1 a_404_n200# a_204_n244# a_100_n200# VSUBS nfet_03v3 ad=0.52p pd=2.52u as=0.52p ps=2.52u w=2u l=1u
X2 a_100_n200# a_n100_n244# a_n204_n200# VSUBS nfet_03v3 ad=0.52p pd=2.52u as=0.52p ps=2.52u w=2u l=1u
X3 a_708_n200# a_508_n244# a_404_n200# VSUBS nfet_03v3 ad=0.88p pd=4.88u as=0.52p ps=2.52u w=2u l=1u
X4 a_n204_n200# a_n404_n244# a_n508_n200# VSUBS nfet_03v3 ad=0.52p pd=2.52u as=0.52p ps=2.52u w=2u l=1u
.ends

.subckt ppolyf_u_2V2ZHK a_40_n602# a_40_500# a_n240_n602# w_n424_n786# a_n240_500#
X0 a_40_500# a_40_n602# w_n424_n786# ppolyf_u r_width=1u r_length=5u
X1 a_n240_500# a_n240_n602# w_n424_n786# ppolyf_u r_width=1u r_length=5u
.ends

.subckt nmos_3p3_UUQWW2 a_n28_n332# a_28_n288# a_n116_n288# VSUBS
X0 a_28_n288# a_n28_n332# a_n116_n288# VSUBS nfet_03v3 ad=1.27p pd=6.64u as=1.27p ps=6.64u w=2.88u l=0.28u
.ends

.subckt pmos_3p3_M2NNAR a_n108_n1448# a_52_n712# a_108_n1404# a_n52_n668# a_52_n1448#
+ a_n52_68# a_52_24# a_n108_n712# a_108_804# a_108_68# a_n196_68# a_52_760# a_n196_n1404#
+ a_n108_760# a_108_n668# a_n52_804# a_n52_n1404# a_n196_n668# a_n196_804# a_n108_24#
+ w_n282_n1534#
X0 a_n52_n1404# a_n108_n1448# a_n196_n1404# w_n282_n1534# pfet_03v3 ad=0.78p pd=3.52u as=1.32p ps=6.88u w=3u l=0.28u
X1 a_108_n668# a_52_n712# a_n52_n668# w_n282_n1534# pfet_03v3 ad=1.32p pd=6.88u as=0.78p ps=3.52u w=3u l=0.28u
X2 a_108_804# a_52_760# a_n52_804# w_n282_n1534# pfet_03v3 ad=1.32p pd=6.88u as=0.78p ps=3.52u w=3u l=0.28u
X3 a_n52_n668# a_n108_n712# a_n196_n668# w_n282_n1534# pfet_03v3 ad=0.78p pd=3.52u as=1.32p ps=6.88u w=3u l=0.28u
X4 a_n52_68# a_n108_24# a_n196_68# w_n282_n1534# pfet_03v3 ad=0.78p pd=3.52u as=1.32p ps=6.88u w=3u l=0.28u
X5 a_108_68# a_52_24# a_n52_68# w_n282_n1534# pfet_03v3 ad=1.32p pd=6.88u as=0.78p ps=3.52u w=3u l=0.28u
X6 a_n52_804# a_n108_760# a_n196_804# w_n282_n1534# pfet_03v3 ad=0.78p pd=3.52u as=1.32p ps=6.88u w=3u l=0.28u
X7 a_108_n1404# a_52_n1448# a_n52_n1404# w_n282_n1534# pfet_03v3 ad=1.32p pd=6.88u as=0.78p ps=3.52u w=3u l=0.28u
.ends

.subckt pmos_3p3_MGRCNG a_n204_n36# a_56_n69# a_112_n25# a_n112_n69# w_n290_n161#
+ a_n56_n25#
X0 a_n56_n25# a_n112_n69# a_n204_n36# w_n290_n161# pfet_03v3 ad=89.8f pd=0.92u as=0.155p ps=1.64u w=0.25u l=0.28u
X1 a_112_n25# a_56_n69# a_n56_n25# w_n290_n161# pfet_03v3 ad=0.155p pd=1.64u as=89.8f ps=0.92u w=0.25u l=0.28u
.ends

.subckt nmos_3p3_H9QVWA a_n120_n36# a_28_n25# a_n28_n69# VSUBS
X0 a_28_n25# a_n28_n69# a_n120_n36# VSUBS nfet_03v3 ad=0.155p pd=1.64u as=0.155p ps=1.64u w=0.25u l=0.28u
.ends

.subckt INVERTER_magic IN OUT VDD VSS
Xpmos_3p3_MGRCNG_0 OUT IN OUT IN VDD VDD pmos_3p3_MGRCNG
Xnmos_3p3_H9QVWA_0 VSS OUT IN VSS nmos_3p3_H9QVWA
Xnmos_3p3_H9QVWA_1 VSS VSS VSS VSS nmos_3p3_H9QVWA
.ends

.subckt nmos_3p3_49QVWA a_n204_n36# a_56_n69# a_112_n25# a_n112_n69# a_n56_n25# VSUBS
X0 a_n56_n25# a_n112_n69# a_n204_n36# VSUBS nfet_03v3 ad=89.8f pd=0.92u as=0.155p ps=1.64u w=0.25u l=0.28u
X1 a_112_n25# a_56_n69# a_n56_n25# VSUBS nfet_03v3 ad=0.155p pd=1.64u as=89.8f ps=0.92u w=0.25u l=0.28u
.ends

.subckt pmos_3p3_M8RWPS a_n28_n94# w_n202_n180# a_n116_n50# a_28_n50#
X0 a_28_n50# a_n28_n94# a_n116_n50# w_n202_n180# pfet_03v3 ad=0.22p pd=1.88u as=0.22p ps=1.88u w=0.5u l=0.28u
.ends

.subckt AND A B OUT VDD VSS
Xnmos_3p3_H9QVWA_0 VSS OUT a_571_376# VSS nmos_3p3_H9QVWA
Xnmos_3p3_49QVWA_0 m1_41_62# B m1_41_62# B VSS VSS nmos_3p3_49QVWA
Xnmos_3p3_49QVWA_1 m1_41_62# A m1_41_62# A a_571_376# VSS nmos_3p3_49QVWA
Xpmos_3p3_M8RWPS_0 a_571_376# VDD VDD OUT pmos_3p3_M8RWPS
Xpmos_3p3_M8RWPS_1 A VDD VDD a_571_376# pmos_3p3_M8RWPS
Xpmos_3p3_M8RWPS_2 B VDD a_571_376# VDD pmos_3p3_M8RWPS
.ends

.subckt pmos_3p3_M8RCNG a_n120_n36# w_n206_n161# a_28_n25# a_n28_n69#
X0 a_28_n25# a_n28_n69# a_n120_n36# w_n206_n161# pfet_03v3 ad=0.155p pd=1.64u as=0.155p ps=1.64u w=0.25u l=0.28u
.ends

.subckt OR_magic A B OUT VDD VSS
Xnmos_3p3_H9QVWA_0 a_607_n374# VSS A VSS nmos_3p3_H9QVWA
Xnmos_3p3_H9QVWA_1 VSS a_607_n374# B VSS nmos_3p3_H9QVWA
Xnmos_3p3_H9QVWA_2 VSS OUT a_607_n374# VSS nmos_3p3_H9QVWA
Xpmos_3p3_M8RCNG_11 m1_267_n209# VDD a_607_n374# B pmos_3p3_M8RCNG
Xpmos_3p3_M8RCNG_10 m1_267_n209# VDD a_607_n374# B pmos_3p3_M8RCNG
Xpmos_3p3_M8RCNG_0 VDD VDD OUT a_607_n374# pmos_3p3_M8RCNG
Xpmos_3p3_M8RCNG_1 VDD VDD m1_267_n209# A pmos_3p3_M8RCNG
Xpmos_3p3_M8RCNG_2 VDD VDD OUT a_607_n374# pmos_3p3_M8RCNG
Xpmos_3p3_M8RCNG_3 VDD VDD m1_267_n209# A pmos_3p3_M8RCNG
Xpmos_3p3_M8RCNG_4 VDD VDD m1_267_n209# A pmos_3p3_M8RCNG
Xpmos_3p3_M8RCNG_6 VDD VDD VDD VDD pmos_3p3_M8RCNG
Xpmos_3p3_M8RCNG_7 VDD VDD m1_267_n209# A pmos_3p3_M8RCNG
Xpmos_3p3_M8RCNG_8 m1_267_n209# VDD a_607_n374# B pmos_3p3_M8RCNG
Xpmos_3p3_M8RCNG_9 m1_267_n209# VDD a_607_n374# B pmos_3p3_M8RCNG
.ends
