* NGSPICE file created from Filter_magic_flat.ext - technology: gf180mcuC

.subckt Filter_magic_flat VIN_N1 VDD VSS VCM1 VIN_P1 VOUT_OPAMP_P VOUT_OPAMP_N VOUT_P
+ VOUT_N
X0 VSS Folded_Diff_Op_Amp_Layout_0.OUT1.t36 VOUT_N.t37 VSS.t75 nfet_03v3 ad=0.78p pd=3.52u as=1.32p ps=6.88u w=3u l=0.28u
X1 VDD.t396 VDD.t395 VDD.t396 VDD.t208 pfet_03v3 ad=1.65p pd=8.38u as=0 ps=0 w=3.75u l=0.28u
X2 VOUT_P Folded_Diff_Op_Amp_Layout_0.IBIAS2.t122 VDD.t790 VDD.t710 pfet_03v3 ad=0.78p pd=3.52u as=0.78p ps=3.52u w=3u l=0.28u
X3 VOUT_N Folded_Diff_Op_Amp_Layout_0.IBIAS2.t123 VDD.t1385 VDD.t1119 pfet_03v3 ad=1.32p pd=6.88u as=0.78p ps=3.52u w=3u l=0.28u
X4 VDD Folded_Diff_Op_Amp_Layout_0.IBIAS2.t124 VOUT_P.t195 VDD.t1030 pfet_03v3 ad=0.78p pd=3.52u as=0.78p ps=3.52u w=3u l=0.28u
X5 Folded_Diff_Op_Amp_Layout_0.VB1 Folded_Diff_Op_Amp_Layout_0.VOUT.t2 Folded_Diff_Op_Amp_Layout_0.VCD.t14 VSS.t280 nfet_03v3 ad=0.26p pd=1.52u as=0.26p ps=1.52u w=1u l=0.28u
X6 VOUT_N Folded_Diff_Op_Amp_Layout_0.OUT1.t37 VSS.t196 VSS.t185 nfet_03v3 ad=0.78p pd=3.52u as=0.78p ps=3.52u w=3u l=0.28u
X7 Folded_Diff_Op_Amp_Layout_0.IBIAS2 Folded_Diff_Op_Amp_Layout_0.IBIAS2.t115 VDD.t789 VDD.t729 pfet_03v3 ad=0.78p pd=3.52u as=0.78p ps=3.52u w=3u l=0.28u
X8 Folded_Diff_Op_Amp_Layout_0.VB2 Folded_Diff_Op_Amp_Layout_0.VB2.t28 Folded_Diff_Op_Amp_Layout_0.IB2.t16 VDD.t572 pfet_03v3 ad=0.13p pd=1.02u as=0.13p ps=1.02u w=0.5u l=0.28u
X9 Folded_Diff_Op_Amp_Layout_0.BD Folded_Diff_Op_Amp_Layout_0.IBIAS.t12 VDD.t20 VDD.t9 pfet_03v3 ad=0.814p pd=3.65u as=0.814p ps=3.65u w=3.13u l=0.56u
X10 Folded_Diff_Op_Amp_Layout_0.VPD Folded_Diff_Op_Amp_Layout_0.VB2.t34 Folded_Diff_Op_Amp_Layout_0.OUT2.t32 VDD.t574 pfet_03v3 ad=1.38p pd=7.14u as=0.814p ps=3.65u w=3.13u l=0.28u
X11 Folded_Diff_Op_Amp_Layout_0.OUT2 Folded_Diff_Op_Amp_Layout_0.VB2.t35 Folded_Diff_Op_Amp_Layout_0.VPD.t30 VDD.t575 pfet_03v3 ad=0.814p pd=3.65u as=1.38p ps=7.14u w=3.13u l=0.28u
X12 VOUT_P Folded_Diff_Op_Amp_Layout_0.IBIAS2.t126 VDD.t1388 VDD.t776 pfet_03v3 ad=0.78p pd=3.52u as=0.78p ps=3.52u w=3u l=0.28u
X13 VDD.t394 VDD.t393 VDD.t394 VDD.t162 pfet_03v3 ad=1.38p pd=7.14u as=0 ps=0 w=3.13u l=0.28u
X14 Folded_Diff_Op_Amp_Layout_0.VND Folded_Diff_Op_Amp_Layout_0.VB2.t36 Folded_Diff_Op_Amp_Layout_0.OUT1.t20 VDD.t576 pfet_03v3 ad=1.38p pd=7.14u as=1.38p ps=7.14u w=3.13u l=0.28u
X15 VSS Folded_Diff_Op_Amp_Layout_0.OUT2.t36 VOUT_P.t198 VSS.t72 nfet_03v3 ad=0.78p pd=3.52u as=0.78p ps=3.52u w=3u l=0.28u
X16 VSS Folded_Diff_Op_Amp_Layout_0.OUT2.t37 VOUT_P.t199 VSS.t84 nfet_03v3 ad=0.78p pd=3.52u as=1.32p ps=6.88u w=3u l=0.28u
X17 VDD Folded_Diff_Op_Amp_Layout_0.IBIAS2.t127 VOUT_P.t193 VDD.t673 pfet_03v3 ad=0.78p pd=3.52u as=1.32p ps=6.88u w=3u l=0.28u
X18 VDD Folded_Diff_Op_Amp_Layout_0.IBIAS2.t128 VOUT_N.t253 VDD.t907 pfet_03v3 ad=0.78p pd=3.52u as=0.78p ps=3.52u w=3u l=0.28u
X19 VDD Folded_Diff_Op_Amp_Layout_0.IBIAS2.t129 VOUT_N.t254 VDD.t1048 pfet_03v3 ad=0.78p pd=3.52u as=0.78p ps=3.52u w=3u l=0.28u
X20 VOUT_N Folded_Diff_Op_Amp_Layout_0.IBIAS2.t130 VDD.t1395 VDD.t1205 pfet_03v3 ad=0.78p pd=3.52u as=0.78p ps=3.52u w=3u l=0.28u
X21 VDD Folded_Diff_Op_Amp_Layout_0.IBIAS2.t131 VOUT_P.t192 VDD.t835 pfet_03v3 ad=0.78p pd=3.52u as=0.78p ps=3.52u w=3u l=0.28u
X22 Folded_Diff_Op_Amp_Layout_0.VB1 Folded_Diff_Op_Amp_Layout_0.VOUT.t3 Folded_Diff_Op_Amp_Layout_0.VCD.t13 VSS.t263 nfet_03v3 ad=0.26p pd=1.52u as=0.26p ps=1.52u w=1u l=0.28u
X23 VDD Folded_Diff_Op_Amp_Layout_0.IBIAS2.t113 Folded_Diff_Op_Amp_Layout_0.IBIAS2.t114 VDD.t636 pfet_03v3 ad=0.78p pd=3.52u as=0.78p ps=3.52u w=3u l=0.28u
X24 Folded_Diff_Op_Amp_Layout_0.VBM VCM1.t0 Folded_Diff_Op_Amp_Layout_0.VCD.t30 VSS.t260 nfet_03v3 ad=0.44p pd=2.88u as=0.26p ps=1.52u w=1u l=0.28u
X25 VOUT_P Folded_Diff_Op_Amp_Layout_0.IBIAS2.t132 VDD.t1319 VDD.t910 pfet_03v3 ad=0.78p pd=3.52u as=0.78p ps=3.52u w=3u l=0.28u
X26 VDD Folded_Diff_Op_Amp_Layout_0.IBIAS4.t5 Folded_Diff_Op_Amp_Layout_0.IB4.t17 VDD.t519 pfet_03v3 ad=1.32p pd=6.88u as=0.78p ps=3.52u w=3u l=0.28u
X27 Folded_Diff_Op_Amp_Layout_0.VB2 Folded_Diff_Op_Amp_Layout_0.VB2.t4 Folded_Diff_Op_Amp_Layout_0.IB2.t15 VDD.t561 pfet_03v3 ad=0.13p pd=1.02u as=0.13p ps=1.02u w=0.5u l=0.28u
X28 VOUT_P Folded_Diff_Op_Amp_Layout_0.OUT2.t38 VSS.t573 VSS.t87 nfet_03v3 ad=0.78p pd=3.52u as=0.78p ps=3.52u w=3u l=0.28u
X29 a_25284_4817.t1 a_24108_3715.t0 VDD.t48 ppolyf_u r_width=1u r_length=5u
X30 Folded_Diff_Op_Amp_Layout_0.IBIAS2 Folded_Diff_Op_Amp_Layout_0.IVS.t76 VSS.t15 VSS.t14 nfet_03v3 ad=0.52p pd=2.52u as=0.52p ps=2.52u w=2u l=1u
X31 Folded_Diff_Op_Amp_Layout_0.IBS Folded_Diff_Op_Amp_Layout_0.IBS.t5 VSS.t36 VSS.t35 nfet_03v3 ad=0.26p pd=1.52u as=0.26p ps=1.52u w=1u l=1u
X32 VOUT_P Folded_Diff_Op_Amp_Layout_0.IBIAS2.t133 VDD.t1320 VDD.t910 pfet_03v3 ad=0.78p pd=3.52u as=0.78p ps=3.52u w=3u l=0.28u
X33 VOUT_N Folded_Diff_Op_Amp_Layout_0.IBIAS2.t134 VDD.t1321 VDD.t1053 pfet_03v3 ad=0.78p pd=3.52u as=0.78p ps=3.52u w=3u l=0.28u
X34 VDD Folded_Diff_Op_Amp_Layout_0.IBIAS2.t135 VOUT_P.t189 VDD.t773 pfet_03v3 ad=0.78p pd=3.52u as=0.78p ps=3.52u w=3u l=0.28u
X35 a_24836_4817.t1 a_26012_3715.t1 VDD.t478 ppolyf_u r_width=1u r_length=5u
X36 Folded_Diff_Op_Amp_Layout_0.IB4 Folded_Diff_Op_Amp_Layout_0.IB4.t8 VSS.t528 VSS.t527 nfet_03v3 ad=0.52p pd=2.52u as=0.52p ps=2.52u w=2u l=1u
X37 VSS Folded_Diff_Op_Amp_Layout_0.VBIASN.t5 Folded_Diff_Op_Amp_Layout_0.VB2.t32 VSS.t514 nfet_03v3 ad=0.26p pd=1.52u as=0.44p ps=2.88u w=1u l=0.56u
X38 VOUT_N Folded_Diff_Op_Amp_Layout_0.IBIAS2.t136 VDD.t1324 VDD.t806 pfet_03v3 ad=0.78p pd=3.52u as=0.78p ps=3.52u w=3u l=0.28u
X39 VDD Folded_Diff_Op_Amp_Layout_0.IBIAS2.t137 VOUT_P.t188 VDD.t626 pfet_03v3 ad=0.78p pd=3.52u as=0.78p ps=3.52u w=3u l=0.28u
X40 VOUT_P Folded_Diff_Op_Amp_Layout_0.IBIAS2.t138 VDD.t1298 VDD.t914 pfet_03v3 ad=0.78p pd=3.52u as=0.78p ps=3.52u w=3u l=0.28u
X41 Folded_Diff_Op_Amp_Layout_0.VBM VCM1.t1 Folded_Diff_Op_Amp_Layout_0.VCD.t31 VSS.t261 nfet_03v3 ad=0.26p pd=1.52u as=0.26p ps=1.52u w=1u l=0.28u
X42 VSS Folded_Diff_Op_Amp_Layout_0.OUT2.t39 VOUT_P.t201 VSS.t116 nfet_03v3 ad=0.78p pd=3.52u as=0.78p ps=3.52u w=3u l=0.28u
X43 VDD Folded_Diff_Op_Amp_Layout_0.IBIAS2.t139 VOUT_N.t228 VDD.t1201 pfet_03v3 ad=0.78p pd=3.52u as=0.78p ps=3.52u w=3u l=0.28u
X44 VSS.t488 VSS.t487 VSS.t488 VSS.t299 nfet_03v3 ad=1.32p pd=6.88u as=0 ps=0 w=3u l=0.28u
X45 VDD Folded_Diff_Op_Amp_Layout_0.IBIAS2.t140 VOUT_P.t186 VDD.t919 pfet_03v3 ad=0.78p pd=3.52u as=1.32p ps=6.88u w=3u l=0.28u
X46 VDD Folded_Diff_Op_Amp_Layout_0.IBIAS1.t2 Folded_Diff_Op_Amp_Layout_0.IBS.t8 VDD.t536 pfet_03v3 ad=1.04p pd=4.52u as=1.76p ps=8.88u w=4u l=0.56u
X47 VOUT_N Folded_Diff_Op_Amp_Layout_0.OUT1.t38 VSS.t195 VSS.t78 nfet_03v3 ad=0.78p pd=3.52u as=0.78p ps=3.52u w=3u l=0.28u
X48 VOUT_N Folded_Diff_Op_Amp_Layout_0.IBIAS2.t141 VDD.t1303 VDD.t914 pfet_03v3 ad=0.78p pd=3.52u as=0.78p ps=3.52u w=3u l=0.28u
X49 Folded_Diff_Op_Amp_Layout_0.BD Folded_Diff_Op_Amp_Layout_0.IBIAS.t13 VDD.t22 VDD.t9 pfet_03v3 ad=0.814p pd=3.65u as=0.814p ps=3.65u w=3.13u l=0.56u
X50 VOUT_P Folded_Diff_Op_Amp_Layout_0.OUT2.t40 VSS.t576 VSS.t78 nfet_03v3 ad=0.78p pd=3.52u as=0.78p ps=3.52u w=3u l=0.28u
X51 VOUT_P Folded_Diff_Op_Amp_Layout_0.IBIAS2.t142 VDD.t1304 VDD.t826 pfet_03v3 ad=0.78p pd=3.52u as=0.78p ps=3.52u w=3u l=0.28u
X52 VOUT_N Folded_Diff_Op_Amp_Layout_0.IBIAS2.t143 VDD.t1305 VDD.t831 pfet_03v3 ad=1.32p pd=6.88u as=0.78p ps=3.52u w=3u l=0.28u
X53 VIN_N1.t0 a_n5986_5540.t1 VDD.t49 ppolyf_u r_width=1u r_length=2.3u
X54 VDD Folded_Diff_Op_Amp_Layout_0.IBIAS2.t111 Folded_Diff_Op_Amp_Layout_0.IBIAS2.t112 VDD.t646 pfet_03v3 ad=0.78p pd=3.52u as=0.78p ps=3.52u w=3u l=0.28u
X55 VOUT_N Folded_Diff_Op_Amp_Layout_0.IBIAS2.t144 VDD.t1306 VDD.t1094 pfet_03v3 ad=1.32p pd=6.88u as=0.78p ps=3.52u w=3u l=0.28u
X56 a_29734_1647.t1 VOUT_N.t1 cap_mim_2f0_m4m5_noshield c_width=21u c_length=21u
X57 Folded_Diff_Op_Amp_Layout_0.VB1 Folded_Diff_Op_Amp_Layout_0.VOUT.t4 Folded_Diff_Op_Amp_Layout_0.VCD.t12 VSS.t279 nfet_03v3 ad=0.26p pd=1.52u as=0.26p ps=1.52u w=1u l=0.28u
X58 VDD.t392 VDD.t391 VDD.t392 VDD.t327 pfet_03v3 ad=1.76p pd=8.88u as=0 ps=0 w=4u l=0.28u
X59 VSS Folded_Diff_Op_Amp_Layout_0.OUT2.t41 VOUT_P.t203 VSS.t136 nfet_03v3 ad=0.78p pd=3.52u as=0.78p ps=3.52u w=3u l=0.28u
X60 VDD Folded_Diff_Op_Amp_Layout_0.IBIAS2.t145 VOUT_N.t232 VDD.t835 pfet_03v3 ad=0.78p pd=3.52u as=0.78p ps=3.52u w=3u l=0.28u
X61 VOUT_P Folded_Diff_Op_Amp_Layout_0.OUT2.t42 VSS.t579 VSS.t113 nfet_03v3 ad=0.78p pd=3.52u as=0.78p ps=3.52u w=3u l=0.28u
X62 VDD Folded_Diff_Op_Amp_Layout_0.IBIAS2.t146 VOUT_N.t261 VDD.t778 pfet_03v3 ad=0.78p pd=3.52u as=0.78p ps=3.52u w=3u l=0.28u
X63 VOUT_P Folded_Diff_Op_Amp_Layout_0.IBIAS2.t147 VDD.t1417 VDD.t838 pfet_03v3 ad=0.78p pd=3.52u as=0.78p ps=3.52u w=3u l=0.28u
X64 Folded_Diff_Op_Amp_Layout_0.VCD VCM1.t2 Folded_Diff_Op_Amp_Layout_0.VBM.t27 VSS.t262 nfet_03v3 ad=0.26p pd=1.52u as=0.26p ps=1.52u w=1u l=0.28u
X65 a_n5706_9350.t0 a_n6266_8788.t0 VDD.t44 ppolyf_u r_width=1u r_length=2.3u
X66 VDD.t36 VDD.t37 VDD.t35 ppolyf_u r_width=1u r_length=2.3u
X67 Folded_Diff_Op_Amp_Layout_0.IVS Folded_Diff_Op_Amp_Layout_0.IVS.t56 VSS.t547 VSS.t545 nfet_03v3 ad=0.52p pd=2.52u as=0.52p ps=2.52u w=2u l=1u
X68 VDD.t390 VDD.t389 VDD.t390 VDD.t268 pfet_03v3 ad=1.65p pd=8.38u as=0 ps=0 w=3.75u l=0.28u
X69 VSS.t486 VSS.t485 VSS.t486 VSS.t299 nfet_03v3 ad=1.32p pd=6.88u as=0 ps=0 w=3u l=0.28u
X70 Folded_Diff_Op_Amp_Layout_0.BD Folded_Diff_Op_Amp_Layout_0.IBIAS.t14 VDD.t8 VDD.t7 pfet_03v3 ad=0.814p pd=3.65u as=0.814p ps=3.65u w=3.13u l=0.56u
X71 VDD.t388 VDD.t387 VDD.t388 VDD.t265 pfet_03v3 ad=1.65p pd=8.38u as=0 ps=0 w=3.75u l=0.28u
X72 filter_res_magic_0.R7_R8_R10_C a_n6826_5540.t1 VDD.t118 ppolyf_u r_width=1u r_length=2.3u
X73 Folded_Diff_Op_Amp_Layout_0.IND Folded_Diff_Op_Amp_Layout_0.VB4.t32 VSS.t229 VSS.t56 nfet_03v3 ad=1.27p pd=6.64u as=0.749p ps=3.4u w=2.88u l=0.28u
X74 VOUT_P Folded_Diff_Op_Amp_Layout_0.OUT2.t43 VSS.t580 VSS.t108 nfet_03v3 ad=0.78p pd=3.52u as=0.78p ps=3.52u w=3u l=0.28u
X75 VOUT_P Folded_Diff_Op_Amp_Layout_0.OUT2.t44 VSS.t581 VSS.t149 nfet_03v3 ad=0.78p pd=3.52u as=0.78p ps=3.52u w=3u l=0.28u
X76 Folded_Diff_Op_Amp_Layout_0.IBS Folded_Diff_Op_Amp_Layout_0.IBIAS1.t3 VDD.t508 VDD.t507 pfet_03v3 ad=1.04p pd=4.52u as=1.04p ps=4.52u w=4u l=0.56u
X77 Folded_Diff_Op_Amp_Layout_0.VND Folded_Diff_Op_Amp_Layout_0.VB2.t38 Folded_Diff_Op_Amp_Layout_0.OUT1.t21 VDD.t577 pfet_03v3 ad=1.38p pd=7.14u as=0.814p ps=3.65u w=3.13u l=0.28u
X78 VOUT_N Folded_Diff_Op_Amp_Layout_0.OUT1.t39 VSS.t194 VSS.t156 nfet_03v3 ad=0.78p pd=3.52u as=0.78p ps=3.52u w=3u l=0.28u
X79 VDD Folded_Diff_Op_Amp_Layout_0.IBIAS2.t148 VOUT_P.t183 VDD.t844 pfet_03v3 ad=0.78p pd=3.52u as=0.78p ps=3.52u w=3u l=0.28u
X80 VOUT_N Folded_Diff_Op_Amp_Layout_0.IBIAS2.t149 VDD.t1420 VDD.t1098 pfet_03v3 ad=0.78p pd=3.52u as=0.78p ps=3.52u w=3u l=0.28u
X81 Folded_Diff_Op_Amp_Layout_0.VPD Folded_Diff_Op_Amp_Layout_0.VB2.t39 Folded_Diff_Op_Amp_Layout_0.OUT2.t31 VDD.t578 pfet_03v3 ad=1.38p pd=7.14u as=0.814p ps=3.65u w=3.13u l=0.28u
X82 VDD Folded_Diff_Op_Amp_Layout_0.IBIAS2.t150 VOUT_N.t263 VDD.t1100 pfet_03v3 ad=0.78p pd=3.52u as=0.78p ps=3.52u w=3u l=0.28u
X83 Folded_Diff_Op_Amp_Layout_0.VCD Folded_Diff_Op_Amp_Layout_0.VOUT.t5 Folded_Diff_Op_Amp_Layout_0.VB1.t26 VSS.t281 nfet_03v3 ad=0.26p pd=1.52u as=0.26p ps=1.52u w=1u l=0.28u
X84 VSS Folded_Diff_Op_Amp_Layout_0.OUT1.t40 VOUT_N.t36 VSS.t92 nfet_03v3 ad=0.78p pd=3.52u as=0.78p ps=3.52u w=3u l=0.28u
X85 Folded_Diff_Op_Amp_Layout_0.IB2 Folded_Diff_Op_Amp_Layout_0.VB2.t22 Folded_Diff_Op_Amp_Layout_0.VB2.t23 VDD.t570 pfet_03v3 ad=0.13p pd=1.02u as=0.13p ps=1.02u w=0.5u l=0.28u
X86 VDD Folded_Diff_Op_Amp_Layout_0.IBIAS2.t109 Folded_Diff_Op_Amp_Layout_0.IBIAS2.t110 VDD.t721 pfet_03v3 ad=0.78p pd=3.52u as=0.78p ps=3.52u w=3u l=0.28u
X87 Folded_Diff_Op_Amp_Layout_0.IBIAS2 Folded_Diff_Op_Amp_Layout_0.IBIAS2.t107 VDD.t735 VDD.t657 pfet_03v3 ad=0.78p pd=3.52u as=0.78p ps=3.52u w=3u l=0.28u
X88 VOUT_P Folded_Diff_Op_Amp_Layout_0.IBIAS2.t152 VDD.t1423 VDD.t1035 pfet_03v3 ad=0.78p pd=3.52u as=0.78p ps=3.52u w=3u l=0.28u
X89 VOUT_P Folded_Diff_Op_Amp_Layout_0.IBIAS2.t153 VDD.t1424 VDD.t1098 pfet_03v3 ad=0.78p pd=3.52u as=0.78p ps=3.52u w=3u l=0.28u
X90 VOUT_P Folded_Diff_Op_Amp_Layout_0.OUT2.t45 VSS.t582 VSS.t103 nfet_03v3 ad=0.78p pd=3.52u as=0.78p ps=3.52u w=3u l=0.28u
X91 VDD Folded_Diff_Op_Amp_Layout_0.VB1.t34 Folded_Diff_Op_Amp_Layout_0.VPD.t15 VDD.t943 pfet_03v3 ad=0.814p pd=3.65u as=0.814p ps=3.65u w=3.13u l=0.28u
X92 VDD Folded_Diff_Op_Amp_Layout_0.IBIAS1.t4 Folded_Diff_Op_Amp_Layout_0.VBIASN.t0 VDD.t481 pfet_03v3 ad=1.04p pd=4.52u as=1.76p ps=8.88u w=4u l=0.56u
X93 Folded_Diff_Op_Amp_Layout_0.BD VOUT_OPAMP_P.t7 Folded_Diff_Op_Amp_Layout_0.IPD.t23 VDD.t500 pfet_03v3 ad=0.975p pd=4.27u as=0.975p ps=4.27u w=3.75u l=0.28u
X94 VDD Folded_Diff_Op_Amp_Layout_0.IBIAS2.t154 VOUT_P.t180 VDD.t882 pfet_03v3 ad=0.78p pd=3.52u as=0.78p ps=3.52u w=3u l=0.28u
X95 VOUT_N Folded_Diff_Op_Amp_Layout_0.IBIAS2.t155 VDD.t1204 VDD.t885 pfet_03v3 ad=0.78p pd=3.52u as=0.78p ps=3.52u w=3u l=0.28u
X96 VDD Folded_Diff_Op_Amp_Layout_0.IBIAS.t15 Folded_Diff_Op_Amp_Layout_0.BD.t28 VDD.t11 pfet_03v3 ad=0.814p pd=3.65u as=0.814p ps=3.65u w=3.13u l=0.56u
X97 VSS Folded_Diff_Op_Amp_Layout_0.OUT2.t46 VOUT_P.t208 VSS.t100 nfet_03v3 ad=0.78p pd=3.52u as=0.78p ps=3.52u w=3u l=0.28u
X98 Folded_Diff_Op_Amp_Layout_0.IND VOUT_OPAMP_N.t7 Folded_Diff_Op_Amp_Layout_0.BD.t44 VDD.t498 pfet_03v3 ad=0.975p pd=4.27u as=0.975p ps=4.27u w=3.75u l=0.28u
X99 Folded_Diff_Op_Amp_Layout_0.VB4 Folded_Diff_Op_Amp_Layout_0.IB5.t6 Folded_Diff_Op_Amp_Layout_0.IB5.t7 VSS.t60 nfet_03v3 ad=0.26p pd=1.52u as=0.26p ps=1.52u w=1u l=0.28u
X100 VSS.t484 VSS.t483 VSS.t484 VSS.t293 nfet_03v3 ad=1.32p pd=6.88u as=0 ps=0 w=3u l=0.28u
X101 VSS Folded_Diff_Op_Amp_Layout_0.OUT1.t41 VOUT_N.t35 VSS.t182 nfet_03v3 ad=0.78p pd=3.52u as=0.78p ps=3.52u w=3u l=0.28u
X102 VOUT_N Folded_Diff_Op_Amp_Layout_0.IBIAS2.t156 VDD.t1206 VDD.t1205 pfet_03v3 ad=0.78p pd=3.52u as=0.78p ps=3.52u w=3u l=0.28u
X103 VDD Folded_Diff_Op_Amp_Layout_0.IBIAS2.t157 VOUT_P.t179 VDD.t828 pfet_03v3 ad=0.78p pd=3.52u as=0.78p ps=3.52u w=3u l=0.28u
X104 Folded_Diff_Op_Amp_Layout_0.OUT1.t4 a_29734_1647.t1 VDD.t411 ppolyf_u r_width=1u r_length=6.2u
X105 Folded_Diff_Op_Amp_Layout_0.IBIAS3 Folded_Diff_Op_Amp_Layout_0.IB4.t19 VSS.t616 VSS.t14 nfet_03v3 ad=0.52p pd=2.52u as=0.52p ps=2.52u w=2u l=1u
X106 Folded_Diff_Op_Amp_Layout_0.VPD Folded_Diff_Op_Amp_Layout_0.VB1.t35 VDD.t947 VDD.t946 pfet_03v3 ad=0.814p pd=3.65u as=0.814p ps=3.65u w=3.13u l=0.28u
X107 VDD Folded_Diff_Op_Amp_Layout_0.VB1.t36 Folded_Diff_Op_Amp_Layout_0.VND.t15 VDD.t948 pfet_03v3 ad=0.814p pd=3.65u as=0.814p ps=3.65u w=3.13u l=0.28u
X108 VDD.t386 VDD.t385 VDD.t386 VDD.t257 pfet_03v3 ad=1.32p pd=6.88u as=0 ps=0 w=3u l=0.28u
X109 Folded_Diff_Op_Amp_Layout_0.VBM VCM1.t3 Folded_Diff_Op_Amp_Layout_0.VCD.t33 VSS.t263 nfet_03v3 ad=0.26p pd=1.52u as=0.26p ps=1.52u w=1u l=0.28u
X110 VSS.t482 VSS.t481 VSS.t482 VSS.t314 nfet_03v3 ad=1.27p pd=6.64u as=0 ps=0 w=2.88u l=0.28u
X111 VDD.t384 VDD.t383 VDD.t384 VDD.t314 pfet_03v3 ad=1.38p pd=7.14u as=0 ps=0 w=3.13u l=0.28u
X112 VOUT_P Folded_Diff_Op_Amp_Layout_0.OUT2.t47 VSS.t585 VSS.t156 nfet_03v3 ad=0.78p pd=3.52u as=0.78p ps=3.52u w=3u l=0.28u
X113 VDD Folded_Diff_Op_Amp_Layout_0.IBIAS2.t158 VOUT_N.t205 VDD.t922 pfet_03v3 ad=0.78p pd=3.52u as=0.78p ps=3.52u w=3u l=0.28u
X114 Folded_Diff_Op_Amp_Layout_0.IBIAS2 Folded_Diff_Op_Amp_Layout_0.IBIAS2.t105 VDD.t734 VDD.t719 pfet_03v3 ad=0.78p pd=3.52u as=0.78p ps=3.52u w=3u l=0.28u
X115 VSS Folded_Diff_Op_Amp_Layout_0.VB4.t33 Folded_Diff_Op_Amp_Layout_0.IND.t32 VSS.t0 nfet_03v3 ad=0.749p pd=3.4u as=0.749p ps=3.4u w=2.88u l=0.28u
X116 VOUT_N Folded_Diff_Op_Amp_Layout_0.IBIAS2.t160 VDD.t1211 VDD.t925 pfet_03v3 ad=0.78p pd=3.52u as=0.78p ps=3.52u w=3u l=0.28u
X117 VSS Folded_Diff_Op_Amp_Layout_0.OUT2.t48 VOUT_P.t210 VSS.t140 nfet_03v3 ad=0.78p pd=3.52u as=0.78p ps=3.52u w=3u l=0.28u
X118 Folded_Diff_Op_Amp_Layout_0.BD VOUT_OPAMP_P.t8 Folded_Diff_Op_Amp_Layout_0.IPD.t22 VDD.t501 pfet_03v3 ad=0.975p pd=4.27u as=1.65p ps=8.38u w=3.75u l=0.28u
X119 VSS Folded_Diff_Op_Amp_Layout_0.OUT1.t42 VOUT_N.t34 VSS.t140 nfet_03v3 ad=0.78p pd=3.52u as=0.78p ps=3.52u w=3u l=0.28u
X120 VOUT_P Folded_Diff_Op_Amp_Layout_0.OUT2.t49 VSS.t588 VSS.t80 nfet_03v3 ad=1.32p pd=6.88u as=0.78p ps=3.52u w=3u l=0.28u
X121 VDD Folded_Diff_Op_Amp_Layout_0.IBIAS2.t103 Folded_Diff_Op_Amp_Layout_0.IBIAS2.t104 VDD.t726 pfet_03v3 ad=0.78p pd=3.52u as=0.78p ps=3.52u w=3u l=0.28u
X122 Folded_Diff_Op_Amp_Layout_0.OUT1 Folded_Diff_Op_Amp_Layout_0.VB2.t40 Folded_Diff_Op_Amp_Layout_0.VND.t29 VDD.t575 pfet_03v3 ad=0.814p pd=3.65u as=1.38p ps=7.14u w=3.13u l=0.28u
X123 VDD Folded_Diff_Op_Amp_Layout_0.IBIAS2.t161 VOUT_P.t178 VDD.t895 pfet_03v3 ad=0.78p pd=3.52u as=0.78p ps=3.52u w=3u l=0.28u
X124 VDD Folded_Diff_Op_Amp_Layout_0.IBIAS2.t101 Folded_Diff_Op_Amp_Layout_0.IBIAS2.t102 VDD.t714 pfet_03v3 ad=0.78p pd=3.52u as=0.78p ps=3.52u w=3u l=0.28u
X125 Folded_Diff_Op_Amp_Layout_0.VPD Folded_Diff_Op_Amp_Layout_0.VB2.t41 Folded_Diff_Op_Amp_Layout_0.OUT2.t30 VDD.t576 pfet_03v3 ad=1.38p pd=7.14u as=1.38p ps=7.14u w=3.13u l=0.28u
X126 Folded_Diff_Op_Amp_Layout_0.OUT2 Folded_Diff_Op_Amp_Layout_0.VB2.t42 Folded_Diff_Op_Amp_Layout_0.VPD.t27 VDD.t579 pfet_03v3 ad=0.814p pd=3.65u as=1.38p ps=7.14u w=3.13u l=0.28u
X127 a_29734_3659.t4 VOUT_P.t225 cap_mim_2f0_m4m5_noshield c_width=21u c_length=21u
X128 VDD Folded_Diff_Op_Amp_Layout_0.IBIAS.t16 Folded_Diff_Op_Amp_Layout_0.BD.t27 VDD.t11 pfet_03v3 ad=0.814p pd=3.65u as=0.814p ps=3.65u w=3.13u l=0.56u
X129 Folded_Diff_Op_Amp_Layout_0.BD VOUT_OPAMP_N.t8 Folded_Diff_Op_Amp_Layout_0.IND.t47 VDD.t461 pfet_03v3 ad=0.975p pd=4.27u as=0.975p ps=4.27u w=3.75u l=0.28u
X130 VOUT_P Folded_Diff_Op_Amp_Layout_0.IBIAS2.t162 VDD.t1214 VDD.t900 pfet_03v3 ad=0.78p pd=3.52u as=0.78p ps=3.52u w=3u l=0.28u
X131 Folded_Diff_Op_Amp_Layout_0.IPD VOUT_OPAMP_P.t9 Folded_Diff_Op_Amp_Layout_0.BD.t40 VDD.t467 pfet_03v3 ad=0.975p pd=4.27u as=0.975p ps=4.27u w=3.75u l=0.28u
X132 a_n5986_9350.t0 VIN_P1.t0 VDD.t49 ppolyf_u r_width=1u r_length=2.3u
X133 Folded_Diff_Op_Amp_Layout_0.BD Folded_Diff_Op_Amp_Layout_0.IBIAS.t17 VDD.t14 VDD.t7 pfet_03v3 ad=0.814p pd=3.65u as=0.814p ps=3.65u w=3.13u l=0.56u
X134 VOUT_P Folded_Diff_Op_Amp_Layout_0.IBIAS2.t163 VDD.t1215 VDD.t885 pfet_03v3 ad=0.78p pd=3.52u as=0.78p ps=3.52u w=3u l=0.28u
X135 VOUT_N Folded_Diff_Op_Amp_Layout_0.IBIAS2.t164 VDD.t694 VDD.t693 pfet_03v3 ad=0.78p pd=3.52u as=0.78p ps=3.52u w=3u l=0.28u
X136 VSS.t480 VSS.t479 VSS.t480 VSS.t317 nfet_03v3 ad=0.44p pd=2.88u as=0 ps=0 w=1u l=0.28u
X137 VDD Folded_Diff_Op_Amp_Layout_0.IBIAS2.t165 VOUT_P.t175 VDD.t695 pfet_03v3 ad=0.78p pd=3.52u as=0.78p ps=3.52u w=3u l=0.28u
X138 VDD Folded_Diff_Op_Amp_Layout_0.IBIAS2.t166 VOUT_P.t174 VDD.t698 pfet_03v3 ad=0.78p pd=3.52u as=0.78p ps=3.52u w=3u l=0.28u
X139 a_n7106_6102.t1 a_n5986_5540.t0 VDD.t0 ppolyf_u r_width=1u r_length=2.3u
X140 VOUT_N Folded_Diff_Op_Amp_Layout_0.IBIAS2.t167 VDD.t702 VDD.t701 pfet_03v3 ad=0.78p pd=3.52u as=0.78p ps=3.52u w=3u l=0.28u
X141 Folded_Diff_Op_Amp_Layout_0.VPD Folded_Diff_Op_Amp_Layout_0.VB1.t37 VDD.t952 VDD.t951 pfet_03v3 ad=0.814p pd=3.65u as=0.814p ps=3.65u w=3.13u l=0.28u
X142 Folded_Diff_Op_Amp_Layout_0.IBIAS2 Folded_Diff_Op_Amp_Layout_0.IBIAS2.t99 VDD.t1312 VDD.t719 pfet_03v3 ad=0.78p pd=3.52u as=0.78p ps=3.52u w=3u l=0.28u
X143 Folded_Diff_Op_Amp_Layout_0.OUT1 Folded_Diff_Op_Amp_Layout_0.VB3.t16 Folded_Diff_Op_Amp_Layout_0.IND.t0 VSS.t27 nfet_03v3 ad=1.27p pd=6.64u as=0.749p ps=3.4u w=2.88u l=0.28u
X144 VDD Folded_Diff_Op_Amp_Layout_0.IBIAS2.t169 VOUT_P.t173 VDD.t602 pfet_03v3 ad=0.78p pd=3.52u as=1.32p ps=6.88u w=3u l=0.28u
X145 VDD.t502 VDD.t503 VDD.t35 ppolyf_u r_width=1u r_length=2.3u
X146 VSS Folded_Diff_Op_Amp_Layout_0.VB4.t34 Folded_Diff_Op_Amp_Layout_0.IPD.t55 VSS.t0 nfet_03v3 ad=0.749p pd=3.4u as=0.749p ps=3.4u w=2.88u l=0.28u
X147 VDD.t382 VDD.t381 VDD.t382 VDD.t144 pfet_03v3 ad=1.32p pd=6.88u as=0 ps=0 w=3u l=0.28u
X148 Folded_Diff_Op_Amp_Layout_0.IB5 Folded_Diff_Op_Amp_Layout_0.IB5.t4 Folded_Diff_Op_Amp_Layout_0.VB4.t1 VSS.t59 nfet_03v3 ad=0.26p pd=1.52u as=0.26p ps=1.52u w=1u l=0.28u
X149 VOUT_N Folded_Diff_Op_Amp_Layout_0.IBIAS2.t170 VDD.t706 VDD.t705 pfet_03v3 ad=0.78p pd=3.52u as=0.78p ps=3.52u w=3u l=0.28u
X150 a_24556_2845.t0 a_24836_1743.t0 VDD.t410 ppolyf_u r_width=1u r_length=5u
X151 VSS Folded_Diff_Op_Amp_Layout_0.VB4.t35 Folded_Diff_Op_Amp_Layout_0.IND.t31 VSS.t8 nfet_03v3 ad=0.749p pd=3.4u as=0.749p ps=3.4u w=2.88u l=0.28u
X152 Folded_Diff_Op_Amp_Layout_0.IND Folded_Diff_Op_Amp_Layout_0.VB4.t36 VSS.t214 VSS.t3 nfet_03v3 ad=0.749p pd=3.4u as=0.749p ps=3.4u w=2.88u l=0.28u
X153 VDD Folded_Diff_Op_Amp_Layout_0.IBIAS2.t171 VOUT_N.t94 VDD.t707 pfet_03v3 ad=0.78p pd=3.52u as=0.78p ps=3.52u w=3u l=0.28u
X154 a_n6826_9350.t0 a_n7106_8433.t2 VDD.t118 ppolyf_u r_width=1u r_length=2.3u
X155 a_n6546_6102.t1 a_n5426_5540.t0 VDD.t89 ppolyf_u r_width=1u r_length=2.3u
X156 VOUT_P Folded_Diff_Op_Amp_Layout_0.IBIAS2.t172 VDD.t711 VDD.t710 pfet_03v3 ad=0.78p pd=3.52u as=0.78p ps=3.52u w=3u l=0.28u
X157 VDD.t380 VDD.t379 VDD.t380 VDD.t226 pfet_03v3 ad=1.32p pd=6.88u as=0 ps=0 w=3u l=0.28u
X158 Folded_Diff_Op_Amp_Layout_0.VB2 Folded_Diff_Op_Amp_Layout_0.VB2.t2 Folded_Diff_Op_Amp_Layout_0.IB2.t13 VDD.t560 pfet_03v3 ad=0.13p pd=1.02u as=0.13p ps=1.02u w=0.5u l=0.28u
X159 VSS.t478 VSS.t477 VSS.t478 VSS.t311 nfet_03v3 ad=0.44p pd=2.88u as=0 ps=0 w=1u l=0.28u
X160 Folded_Diff_Op_Amp_Layout_0.VND Folded_Diff_Op_Amp_Layout_0.VB1.t38 VDD.t953 VDD.t946 pfet_03v3 ad=0.814p pd=3.65u as=0.814p ps=3.65u w=3.13u l=0.28u
X161 VSS.t476 VSS.t475 VSS.t476 VSS.t302 nfet_03v3 ad=1.32p pd=6.88u as=0 ps=0 w=3u l=0.28u
X162 VDD.t378 VDD.t377 VDD.t378 VDD.t159 pfet_03v3 ad=1.32p pd=6.88u as=0 ps=0 w=3u l=0.28u
X163 Folded_Diff_Op_Amp_Layout_0.OUT1 Folded_Diff_Op_Amp_Layout_0.VB3.t17 Folded_Diff_Op_Amp_Layout_0.IND.t1 VSS.t28 nfet_03v3 ad=1.27p pd=6.64u as=0.749p ps=3.4u w=2.88u l=0.28u
X164 VOUT_P Folded_Diff_Op_Amp_Layout_0.IBIAS2.t173 VDD.t1222 VDD.t1044 pfet_03v3 ad=0.78p pd=3.52u as=0.78p ps=3.52u w=3u l=0.28u
X165 VOUT_P Folded_Diff_Op_Amp_Layout_0.IBIAS2.t174 VDD.t1223 VDD.t1041 pfet_03v3 ad=0.78p pd=3.52u as=0.78p ps=3.52u w=3u l=0.28u
X166 VSS Folded_Diff_Op_Amp_Layout_0.VB4.t30 Folded_Diff_Op_Amp_Layout_0.VB4.t31 VSS.t226 nfet_03v3 ad=0.26p pd=1.52u as=0.26p ps=1.52u w=1u l=0.28u
X167 Folded_Diff_Op_Amp_Layout_0.IPD VOUT_OPAMP_P.t10 Folded_Diff_Op_Amp_Layout_0.BD.t41 VDD.t468 pfet_03v3 ad=0.975p pd=4.27u as=0.975p ps=4.27u w=3.75u l=0.28u
X168 Folded_Diff_Op_Amp_Layout_0.IND Folded_Diff_Op_Amp_Layout_0.VB4.t37 VSS.t215 VSS.t204 nfet_03v3 ad=0.749p pd=3.4u as=0.749p ps=3.4u w=2.88u l=0.28u
X169 VDD Folded_Diff_Op_Amp_Layout_0.VB2.t44 Folded_Diff_Op_Amp_Layout_0.IB2.t0 VDD.t580 pfet_03v3 ad=0.13p pd=1.02u as=0.13p ps=1.02u w=0.5u l=1u
X170 Folded_Diff_Op_Amp_Layout_0.IVS Folded_Diff_Op_Amp_Layout_0.IVS.t54 VSS.t546 VSS.t545 nfet_03v3 ad=0.52p pd=2.52u as=0.52p ps=2.52u w=2u l=1u
X171 Folded_Diff_Op_Amp_Layout_0.IBIAS2 Folded_Diff_Op_Amp_Layout_0.IBIAS2.t97 VDD.t1311 VDD.t712 pfet_03v3 ad=0.78p pd=3.52u as=0.78p ps=3.52u w=3u l=0.28u
X172 VOUT_P Folded_Diff_Op_Amp_Layout_0.IBIAS2.t176 VDD.t1224 VDD.t597 pfet_03v3 ad=0.78p pd=3.52u as=0.78p ps=3.52u w=3u l=0.28u
X173 VOUT_P Folded_Diff_Op_Amp_Layout_0.IBIAS2.t177 VDD.t1225 VDD.t1119 pfet_03v3 ad=1.32p pd=6.88u as=0.78p ps=3.52u w=3u l=0.28u
X174 VDD Folded_Diff_Op_Amp_Layout_0.IBIAS2.t178 VOUT_N.t207 VDD.t1030 pfet_03v3 ad=0.78p pd=3.52u as=0.78p ps=3.52u w=3u l=0.28u
X175 Folded_Diff_Op_Amp_Layout_0.IBIAS2 Folded_Diff_Op_Amp_Layout_0.IBIAS2.t95 VDD.t1310 VDD.t729 pfet_03v3 ad=0.78p pd=3.52u as=0.78p ps=3.52u w=3u l=0.28u
X176 Folded_Diff_Op_Amp_Layout_0.IND VOUT_OPAMP_N.t9 Folded_Diff_Op_Amp_Layout_0.BD.t46 VDD.t462 pfet_03v3 ad=0.975p pd=4.27u as=0.975p ps=4.27u w=3.75u l=0.28u
X177 Folded_Diff_Op_Amp_Layout_0.VND Folded_Diff_Op_Amp_Layout_0.VB2.t45 Folded_Diff_Op_Amp_Layout_0.OUT1.t23 VDD.t578 pfet_03v3 ad=1.38p pd=7.14u as=0.814p ps=3.65u w=3.13u l=0.28u
X178 VDD Folded_Diff_Op_Amp_Layout_0.IBIAS2.t180 VOUT_N.t208 VDD.t623 pfet_03v3 ad=0.78p pd=3.52u as=0.78p ps=3.52u w=3u l=0.28u
X179 VDD Folded_Diff_Op_Amp_Layout_0.IBIAS2.t181 VOUT_P.t167 VDD.t1048 pfet_03v3 ad=0.78p pd=3.52u as=0.78p ps=3.52u w=3u l=0.28u
X180 VDD Folded_Diff_Op_Amp_Layout_0.IBIAS2.t182 VOUT_P.t166 VDD.t907 pfet_03v3 ad=0.78p pd=3.52u as=0.78p ps=3.52u w=3u l=0.28u
X181 VSS Folded_Diff_Op_Amp_Layout_0.IVS.t52 Folded_Diff_Op_Amp_Layout_0.IVS.t53 VSS.t540 nfet_03v3 ad=0.52p pd=2.52u as=0.52p ps=2.52u w=2u l=1u
X182 VOUT_P Folded_Diff_Op_Amp_Layout_0.IBIAS2.t183 VDD.t904 VDD.t900 pfet_03v3 ad=0.78p pd=3.52u as=0.78p ps=3.52u w=3u l=0.28u
X183 Folded_Diff_Op_Amp_Layout_0.IPD Folded_Diff_Op_Amp_Layout_0.VB4.t38 VSS.t216 VSS.t3 nfet_03v3 ad=0.749p pd=3.4u as=0.749p ps=3.4u w=2.88u l=0.28u
X184 VDD Folded_Diff_Op_Amp_Layout_0.IBIAS2.t184 VOUT_P.t164 VDD.t594 pfet_03v3 ad=0.78p pd=3.52u as=0.78p ps=3.52u w=3u l=0.28u
X185 VDD Folded_Diff_Op_Amp_Layout_0.IBIAS2.t185 VOUT_P.t163 VDD.t907 pfet_03v3 ad=0.78p pd=3.52u as=0.78p ps=3.52u w=3u l=0.28u
X186 a_26292_4817.t0 a_26012_3715.t0 VDD.t32 ppolyf_u r_width=1u r_length=5u
X187 VSS Folded_Diff_Op_Amp_Layout_0.VB4.t39 Folded_Diff_Op_Amp_Layout_0.IPD.t53 VSS.t49 nfet_03v3 ad=0.749p pd=3.4u as=0.749p ps=3.4u w=2.88u l=0.28u
X188 a_26740_4817.t0 a_27020_3715.t1 VDD.t33 ppolyf_u r_width=1u r_length=5u
X189 VOUT_N Folded_Diff_Op_Amp_Layout_0.IBIAS2.t186 VDD.t911 VDD.t910 pfet_03v3 ad=0.78p pd=3.52u as=0.78p ps=3.52u w=3u l=0.28u
X190 VDD Folded_Diff_Op_Amp_Layout_0.IBIAS3.t21 Folded_Diff_Op_Amp_Layout_0.IVS.t66 VDD.t135 pfet_03v3 ad=0.78p pd=3.52u as=0.78p ps=3.52u w=3u l=0.28u
X191 Folded_Diff_Op_Amp_Layout_0.IPD VOUT_OPAMP_P.t11 Folded_Diff_Op_Amp_Layout_0.BD.t42 VDD.t469 pfet_03v3 ad=0.975p pd=4.27u as=0.975p ps=4.27u w=3.75u l=0.28u
X192 Folded_Diff_Op_Amp_Layout_0.VPD Folded_Diff_Op_Amp_Layout_0.VB2.t46 Folded_Diff_Op_Amp_Layout_0.OUT2.t29 VDD.t574 pfet_03v3 ad=1.38p pd=7.14u as=0.814p ps=3.65u w=3.13u l=0.28u
X193 VDD Folded_Diff_Op_Amp_Layout_0.IBIAS2.t187 VOUT_N.t131 VDD.t773 pfet_03v3 ad=0.78p pd=3.52u as=0.78p ps=3.52u w=3u l=0.28u
X194 VOUT_N Folded_Diff_Op_Amp_Layout_0.IBIAS2.t188 VDD.t915 VDD.t914 pfet_03v3 ad=0.78p pd=3.52u as=0.78p ps=3.52u w=3u l=0.28u
X195 a_n6266_10267.t1 a_n5706_9705.t1 VDD.t44 ppolyf_u r_width=1u r_length=2.3u
X196 VDD.t376 VDD.t375 VDD.t376 VDD.t162 pfet_03v3 ad=1.38p pd=7.14u as=0 ps=0 w=3.13u l=0.28u
X197 VDD Folded_Diff_Op_Amp_Layout_0.IBIAS2.t189 VOUT_N.t133 VDD.t797 pfet_03v3 ad=0.78p pd=3.52u as=0.78p ps=3.52u w=3u l=0.28u
X198 VOUT_N Folded_Diff_Op_Amp_Layout_0.IBIAS2.t190 VDD.t918 VDD.t815 pfet_03v3 ad=0.78p pd=3.52u as=0.78p ps=3.52u w=3u l=0.28u
X199 Folded_Diff_Op_Amp_Layout_0.BD VOUT_OPAMP_N.t10 Folded_Diff_Op_Amp_Layout_0.IND.t49 VDD.t463 pfet_03v3 ad=0.975p pd=4.27u as=0.975p ps=4.27u w=3.75u l=0.28u
X200 VDD Folded_Diff_Op_Amp_Layout_0.IBIAS2.t191 VOUT_N.t135 VDD.t919 pfet_03v3 ad=0.78p pd=3.52u as=1.32p ps=6.88u w=3u l=0.28u
X201 VOUT_N Folded_Diff_Op_Amp_Layout_0.OUT1.t43 VSS.t187 VSS.t98 nfet_03v3 ad=1.32p pd=6.88u as=0.78p ps=3.52u w=3u l=0.28u
X202 VOUT_N Folded_Diff_Op_Amp_Layout_0.IBIAS2.t192 VDD.t1087 VDD.t898 pfet_03v3 ad=0.78p pd=3.52u as=0.78p ps=3.52u w=3u l=0.28u
X203 VSS.t474 VSS.t472 VSS.t474 VSS.t473 nfet_03v3 ad=0.44p pd=2.88u as=0 ps=0 w=1u l=0.28u
X204 Folded_Diff_Op_Amp_Layout_0.VB1 Folded_Diff_Op_Amp_Layout_0.VOUT.t6 Folded_Diff_Op_Amp_Layout_0.VCD.t11 VSS.t263 nfet_03v3 ad=0.26p pd=1.52u as=0.26p ps=1.52u w=1u l=0.28u
X205 VOUT_P Folded_Diff_Op_Amp_Layout_0.IBIAS2.t193 VDD.t1088 VDD.t914 pfet_03v3 ad=0.78p pd=3.52u as=0.78p ps=3.52u w=3u l=0.28u
X206 VDD Folded_Diff_Op_Amp_Layout_0.IBIAS2.t194 VOUT_N.t167 VDD.t866 pfet_03v3 ad=0.78p pd=3.52u as=0.78p ps=3.52u w=3u l=0.28u
X207 VDD Folded_Diff_Op_Amp_Layout_0.IBIAS2.t195 VOUT_N.t168 VDD.t919 pfet_03v3 ad=0.78p pd=3.52u as=1.32p ps=6.88u w=3u l=0.28u
X208 VOUT_N Folded_Diff_Op_Amp_Layout_0.IBIAS2.t196 VDD.t1093 VDD.t664 pfet_03v3 ad=1.32p pd=6.88u as=0.78p ps=3.52u w=3u l=0.28u
X209 VDD Folded_Diff_Op_Amp_Layout_0.VB1.t39 Folded_Diff_Op_Amp_Layout_0.VPD.t12 VDD.t954 pfet_03v3 ad=0.814p pd=3.65u as=0.814p ps=3.65u w=3.13u l=0.28u
X210 VOUT_P Folded_Diff_Op_Amp_Layout_0.IBIAS2.t197 VDD.t1095 VDD.t1094 pfet_03v3 ad=1.32p pd=6.88u as=0.78p ps=3.52u w=3u l=0.28u
X211 VSS Folded_Diff_Op_Amp_Layout_0.VB4.t40 Folded_Diff_Op_Amp_Layout_0.IPD.t52 VSS.t5 nfet_03v3 ad=0.749p pd=3.4u as=1.27p ps=6.64u w=2.88u l=0.28u
X212 VDD.t374 VDD.t373 VDD.t374 VDD.t314 pfet_03v3 ad=1.38p pd=7.14u as=0 ps=0 w=3.13u l=0.28u
X213 Folded_Diff_Op_Amp_Layout_0.OUT1.t5 a_29734_1647.t1 VDD.t412 ppolyf_u r_width=1u r_length=6.2u
X214 Folded_Diff_Op_Amp_Layout_0.OUT2 Folded_Diff_Op_Amp_Layout_0.VB3.t18 Folded_Diff_Op_Amp_Layout_0.IPD.t63 VSS.t250 nfet_03v3 ad=1.27p pd=6.64u as=0.749p ps=3.4u w=2.88u l=0.28u
X215 VSS.t471 VSS.t470 VSS.t471 VSS.t419 nfet_03v3 ad=1.27p pd=6.64u as=0 ps=0 w=2.88u l=0.28u
X216 VDD Folded_Diff_Op_Amp_Layout_0.IBIAS2.t198 VOUT_P.t160 VDD.t778 pfet_03v3 ad=0.78p pd=3.52u as=0.78p ps=3.52u w=3u l=0.28u
X217 a_n5986_9350.t1 a_n7106_8788.t1 VDD.t0 ppolyf_u r_width=1u r_length=2.3u
X218 a_n5146_6102.t1 a_n4866_5185.t1 VDD.t114 ppolyf_u r_width=1u r_length=2.3u
X219 VOUT_N Folded_Diff_Op_Amp_Layout_0.OUT1.t44 VSS.t186 VSS.t185 nfet_03v3 ad=0.78p pd=3.52u as=0.78p ps=3.52u w=3u l=0.28u
X220 Folded_Diff_Op_Amp_Layout_0.OUT1.t2 a_29734_1647.t0 VDD.t66 ppolyf_u r_width=1u r_length=6.2u
X221 VSS Folded_Diff_Op_Amp_Layout_0.VB4.t41 Folded_Diff_Op_Amp_Layout_0.IND.t28 VSS.t0 nfet_03v3 ad=0.749p pd=3.4u as=0.749p ps=3.4u w=2.88u l=0.28u
X222 VDD Folded_Diff_Op_Amp_Layout_0.VB1.t40 Folded_Diff_Op_Amp_Layout_0.VPD.t11 VDD.t954 pfet_03v3 ad=0.814p pd=3.65u as=0.814p ps=3.65u w=3.13u l=0.28u
X223 Folded_Diff_Op_Amp_Layout_0.IPD Folded_Diff_Op_Amp_Layout_0.VB4.t42 VSS.t491 VSS.t56 nfet_03v3 ad=1.27p pd=6.64u as=0.749p ps=3.4u w=2.88u l=0.28u