* NGSPICE file created from pag_res_magic_flat.ext - technology: gf180mcuC

.subckt pag_res_magic_flat A B G E C H F D VDD
X0 a_2255_5317.t0 a_2535_5015.t0 VDD.t41 ppolyf_u r_width=1u r_length=1u
X1 a_4495_2888.t1 a_3095_1282.t0 VDD.t7 ppolyf_u r_width=1u r_length=1u
X2 a_1695_5015.t0 a_1695_4013.t0 VDD.t19 ppolyf_u r_width=1u r_length=1u
X3 a_3935_5015.t0 a_4775_4363.t0 VDD.t9 ppolyf_u r_width=1u r_length=1u
X4 VDD.t50 VDD.t51 VDD.t2 ppolyf_u r_width=1u r_length=1u
X5 a_7295_4013.t1 a_7015_3711.t0 VDD.t37 ppolyf_u r_width=1u r_length=1u
X6 a_6455_2888.t0 a_5615_2236.t1 VDD.t36 ppolyf_u r_width=1u r_length=1u
X7 a_3375_5015.t1 a_3375_4013.t1 VDD.t6 ppolyf_u r_width=1u r_length=1u
X8 a_8975_2888.t1 a_7575_1282.t1 VDD.t0 ppolyf_u r_width=1u r_length=1u
X9 G.t8 a_1695_5015.t1 VDD.t8 ppolyf_u r_width=1u r_length=1u
X10 a_6175_5015.t1 a_6175_4013.t1 VDD.t10 ppolyf_u r_width=1u r_length=1u
X11 F.t3 a_8975_3711.t1 VDD.t5 ppolyf_u r_width=1u r_length=1u
X12 a_7295_2236.t0 a_8415_2586.t1 VDD.t15 ppolyf_u r_width=1u r_length=1u
X13 a_1135_5317.t0 a_1135_5015.t1 VDD.t25 ppolyf_u r_width=1u r_length=1u
X14 a_3655_5317.t1 a_3095_4665.t0 VDD.t34 ppolyf_u r_width=1u r_length=1u
X15 a_5615_5317.t1 a_5615_5015.t1 VDD.t35 ppolyf_u r_width=1u r_length=1u
X16 a_2815_2888.t0 a_3095_2586.t1 VDD.t27 ppolyf_u r_width=1u r_length=1u
X17 a_3375_4665.t0 a_3375_4363.t0 VDD.t1 ppolyf_u r_width=1u r_length=1u
X18 a_3935_4665.t1 a_5895_4363.t1 VDD.t31 ppolyf_u r_width=1u r_length=1u
X19 a_5055_2888.t0 a_4775_2586.t1 VDD.t13 ppolyf_u r_width=1u r_length=1u
X20 E.t2 E.t3 VDD.t26 ppolyf_u r_width=1u r_length=1u
X21 a_7295_2888.t1 a_7575_2586.t1 VDD.t16 ppolyf_u r_width=1u r_length=1u
X22 a_5335_4665.t0 a_5335_4363.t0 VDD.t21 ppolyf_u r_width=1u r_length=1u
X23 a_7855_4665.t1 a_7855_4363.t1 VDD.t43 ppolyf_u r_width=1u r_length=1u
X24 a_6735_2888.t1 a_7015_2586.t1 VDD.t32 ppolyf_u r_width=1u r_length=1u
X25 G.t0 G.t1 VDD.t20 ppolyf_u r_width=1u r_length=1u
X26 VDD.t46 VDD.t47 VDD.t38 ppolyf_u r_width=1u r_length=1u
X27 a_2255_5317.t1 a_575_3711.t1 VDD.t19 ppolyf_u r_width=1u r_length=1u
X28 a_4495_5317.t1 a_4775_5015.t1 VDD.t9 ppolyf_u r_width=1u r_length=1u
X29 a_1135_5317.t1 a_3375_4665.t1 VDD.t6 ppolyf_u r_width=1u r_length=1u
X30 a_6735_5317.t1 a_5335_4013.t1 VDD.t10 ppolyf_u r_width=1u r_length=1u
X31 a_3655_5317.t0 a_3935_4013.t0 VDD.t7 ppolyf_u r_width=1u r_length=1u
X32 a_5335_2236.t1 a_6175_2586.t1 VDD.t28 ppolyf_u r_width=1u r_length=1u
X33 a_5615_5015.t0 a_5615_4013.t1 VDD.t36 ppolyf_u r_width=1u r_length=1u
X34 a_5615_2888.t1 a_7855_2236.t0 VDD.t24 ppolyf_u r_width=1u r_length=1u
X35 a_8135_5317.t0 a_8415_4013.t0 VDD.t0 ppolyf_u r_width=1u r_length=1u
X36 a_8135_2888.t0 a_7575_2236.t1 VDD.t14 ppolyf_u r_width=1u r_length=1u
X37 B.t1 a_8135_4363.t0 VDD.t15 ppolyf_u r_width=1u r_length=1u
X38 a_1975_5317.t1 a_3375_5015.t0 VDD.t1 ppolyf_u r_width=1u r_length=1u
X39 a_5895_5317.t0 a_5055_4665.t0 VDD.t31 ppolyf_u r_width=1u r_length=1u
X40 a_5055_5317.t1 a_5335_5015.t0 VDD.t21 ppolyf_u r_width=1u r_length=1u
X41 a_6455_5317.t1 a_7855_5015.t1 VDD.t43 ppolyf_u r_width=1u r_length=1u
X42 E.t7 a_855_5015.t1 VDD.t20 ppolyf_u r_width=1u r_length=1u
X43 a_3095_4665.t1 a_3095_4363.t1 VDD.t27 ppolyf_u r_width=1u r_length=1u
X44 a_2815_1584.t0 a_2535_1282.t0 VDD.t42 ppolyf_u r_width=1u r_length=1u
X45 a_5055_4665.t1 a_4775_4363.t1 VDD.t13 ppolyf_u r_width=1u r_length=1u
X46 VDD.t3 VDD.t4 VDD.t2 ppolyf_u r_width=1u r_length=1u
X47 a_7295_2888.t0 a_7015_2586.t0 VDD.t37 ppolyf_u r_width=1u r_length=1u
X48 a_575_4665.t0 A.t1 VDD.t26 ppolyf_u r_width=1u r_length=1u
X49 a_7575_4665.t1 a_7575_4363.t0 VDD.t16 ppolyf_u r_width=1u r_length=1u
X50 a_5895_5317.t1 a_7015_4363.t1 VDD.t32 ppolyf_u r_width=1u r_length=1u
X51 a_8975_2888.t0 D.t1 VDD.t5 ppolyf_u r_width=1u r_length=1u
X52 VDD.t48 VDD.t49 VDD.t38 ppolyf_u r_width=1u r_length=1u
X53 a_4495_5317.t0 a_3095_3711.t0 VDD.t7 ppolyf_u r_width=1u r_length=1u
X54 a_6455_5317.t0 a_5615_4665.t1 VDD.t36 ppolyf_u r_width=1u r_length=1u
X55 a_8975_5317.t1 a_7575_3711.t1 VDD.t0 ppolyf_u r_width=1u r_length=1u
X56 a_1135_1934.t1 C.t2 VDD.t30 ppolyf_u r_width=1u r_length=1u
X57 a_7295_4665.t0 a_8415_5015.t0 VDD.t15 ppolyf_u r_width=1u r_length=1u
X58 a_3935_1584.t1 a_3935_1282.t0 VDD.t29 ppolyf_u r_width=1u r_length=1u
X59 G.t2 G.t3 VDD.t33 ppolyf_u r_width=1u r_length=1u
X60 a_6175_4665.t0 a_5895_4363.t0 VDD.t28 ppolyf_u r_width=1u r_length=1u
X61 a_7855_5015.t0 a_7855_4013.t0 VDD.t24 ppolyf_u r_width=1u r_length=1u
X62 a_6175_4665.t1 a_8135_4363.t1 VDD.t14 ppolyf_u r_width=1u r_length=1u
X63 a_2815_5317.t1 a_3095_5015.t1 VDD.t27 ppolyf_u r_width=1u r_length=1u
X64 a_1415_2888.t3 a_1415_2888.t4 VDD.t42 ppolyf_u r_width=1u r_length=1u
X65 a_5055_5317.t0 a_4775_5015.t0 VDD.t13 ppolyf_u r_width=1u r_length=1u
X66 a_7295_5317.t0 a_7575_5015.t1 VDD.t16 ppolyf_u r_width=1u r_length=1u
X67 E.t4 E.t5 VDD.t26 ppolyf_u r_width=1u r_length=1u
X68 a_6735_5317.t0 a_7015_5015.t0 VDD.t32 ppolyf_u r_width=1u r_length=1u
X69 VDD.t44 VDD.t45 VDD.t38 ppolyf_u r_width=1u r_length=1u
X70 a_2255_1584.t1 a_2535_1282.t1 VDD.t41 ppolyf_u r_width=1u r_length=1u
X71 VDD.t17 VDD.t18 VDD.t2 ppolyf_u r_width=1u r_length=1u
X72 a_7295_4665.t1 a_7015_4363.t0 VDD.t37 ppolyf_u r_width=1u r_length=1u
X73 a_1135_2586.t1 a_1135_1584.t0 VDD.t30 ppolyf_u r_width=1u r_length=1u
X74 a_8415_5015.t1 B.t2 VDD.t5 ppolyf_u r_width=1u r_length=1u
X75 C.t0 a_1415_1934.t1 VDD.t33 ppolyf_u r_width=1u r_length=1u
X76 a_3935_2236.t0 a_3655_1934.t1 VDD.t29 ppolyf_u r_width=1u r_length=1u
X77 a_5335_4665.t1 a_6175_5015.t0 VDD.t28 ppolyf_u r_width=1u r_length=1u
X78 a_1695_1584.t1 a_1695_1282.t1 VDD.t8 ppolyf_u r_width=1u r_length=1u
X79 a_5615_5317.t0 a_7855_4665.t0 VDD.t24 ppolyf_u r_width=1u r_length=1u
X80 a_8135_5317.t1 a_7575_4665.t0 VDD.t14 ppolyf_u r_width=1u r_length=1u
X81 a_2815_4013.t0 a_2535_3711.t1 VDD.t42 ppolyf_u r_width=1u r_length=1u
X82 a_3095_1934.t1 a_1695_1282.t0 VDD.t34 ppolyf_u r_width=1u r_length=1u
X83 a_1135_1584.t1 G.t9 VDD.t25 ppolyf_u r_width=1u r_length=1u
X84 a_5615_1584.t1 a_4215_1282.t1 VDD.t35 ppolyf_u r_width=1u r_length=1u
X85 a_1415_2888.t1 a_1415_2888.t2 VDD.t41 ppolyf_u r_width=1u r_length=1u
X86 a_1135_4363.t1 C.t3 VDD.t30 ppolyf_u r_width=1u r_length=1u
X87 VDD.t22 VDD.t23 VDD.t2 ppolyf_u r_width=1u r_length=1u
X88 a_7295_5317.t1 a_7015_5015.t1 VDD.t37 ppolyf_u r_width=1u r_length=1u
X89 G.t10 G.t11 VDD.t33 ppolyf_u r_width=1u r_length=1u
X90 a_3935_4013.t1 a_3935_3711.t1 VDD.t29 ppolyf_u r_width=1u r_length=1u
X91 a_2255_1584.t0 a_855_2586.t0 VDD.t19 ppolyf_u r_width=1u r_length=1u
X92 a_8975_5317.t0 D.t0 VDD.t5 ppolyf_u r_width=1u r_length=1u
X93 a_4775_1584.t1 a_4495_1282.t1 VDD.t9 ppolyf_u r_width=1u r_length=1u
X94 a_3375_1934.t1 a_4215_1282.t0 VDD.t6 ppolyf_u r_width=1u r_length=1u
X95 a_6735_1584.t0 a_5335_2586.t0 VDD.t10 ppolyf_u r_width=1u r_length=1u
X96 a_1695_2236.t0 a_1415_1934.t0 VDD.t8 ppolyf_u r_width=1u r_length=1u
X97 a_1695_2236.t1 a_3655_1934.t0 VDD.t34 ppolyf_u r_width=1u r_length=1u
X98 a_1135_2236.t0 a_1135_1934.t0 VDD.t25 ppolyf_u r_width=1u r_length=1u
X99 a_5615_2236.t0 a_5615_1934.t0 VDD.t35 ppolyf_u r_width=1u r_length=1u
X100 a_2255_4013.t0 a_2535_3711.t0 VDD.t41 ppolyf_u r_width=1u r_length=1u
X101 a_5335_1934.t1 a_3935_1282.t1 VDD.t31 ppolyf_u r_width=1u r_length=1u
X102 a_3375_1584.t1 a_3375_1282.t0 VDD.t1 ppolyf_u r_width=1u r_length=1u
X103 a_7855_1584.t1 D.t2 VDD.t43 ppolyf_u r_width=1u r_length=1u
X104 a_5335_1584.t1 a_5055_1282.t1 VDD.t21 ppolyf_u r_width=1u r_length=1u
X105 a_575_1282.t1 a_575_1282.t2 VDD.t20 ppolyf_u r_width=1u r_length=1u
X106 a_1695_2586.t0 a_1695_1584.t0 VDD.t19 ppolyf_u r_width=1u r_length=1u
X107 a_3935_2586.t0 a_4775_1934.t0 VDD.t9 ppolyf_u r_width=1u r_length=1u
X108 a_1695_4013.t1 a_1695_3711.t0 VDD.t8 ppolyf_u r_width=1u r_length=1u
X109 a_3375_2586.t0 a_3375_1584.t0 VDD.t6 ppolyf_u r_width=1u r_length=1u
X110 a_1135_4013.t1 G.t7 VDD.t25 ppolyf_u r_width=1u r_length=1u
X111 a_6175_2586.t0 a_6175_1584.t0 VDD.t10 ppolyf_u r_width=1u r_length=1u
X112 a_3095_4363.t0 a_1695_3711.t1 VDD.t34 ppolyf_u r_width=1u r_length=1u
X113 a_3095_2586.t0 a_4495_1282.t0 VDD.t7 ppolyf_u r_width=1u r_length=1u
X114 a_2815_2888.t1 a_2535_2586.t1 VDD.t42 ppolyf_u r_width=1u r_length=1u
X115 a_5615_4013.t0 a_4215_3711.t0 VDD.t35 ppolyf_u r_width=1u r_length=1u
X116 a_5615_1934.t1 a_3375_1282.t1 VDD.t36 ppolyf_u r_width=1u r_length=1u
X117 a_7575_2586.t0 a_8975_1282.t0 VDD.t0 ppolyf_u r_width=1u r_length=1u
X118 a_8415_1584.t0 H.t1 VDD.t15 ppolyf_u r_width=1u r_length=1u
X119 a_3375_2236.t0 a_3375_1934.t0 VDD.t1 ppolyf_u r_width=1u r_length=1u
X120 a_3935_2236.t1 a_5895_1934.t1 VDD.t31 ppolyf_u r_width=1u r_length=1u
X121 a_5335_2236.t0 a_5335_1934.t0 VDD.t21 ppolyf_u r_width=1u r_length=1u
X122 a_1975_2888.t1 a_1135_2236.t1 VDD.t30 ppolyf_u r_width=1u r_length=1u
X123 a_2255_4013.t1 a_855_5015.t0 VDD.t19 ppolyf_u r_width=1u r_length=1u
X124 a_7855_2236.t1 a_7855_1934.t1 VDD.t43 ppolyf_u r_width=1u r_length=1u
X125 G.t4 G.t5 VDD.t20 ppolyf_u r_width=1u r_length=1u
X126 a_4775_4013.t1 a_4495_3711.t0 VDD.t9 ppolyf_u r_width=1u r_length=1u
X127 a_1415_2888.t0 a_575_2236.t1 VDD.t33 ppolyf_u r_width=1u r_length=1u
X128 a_2815_1584.t1 a_3095_1282.t1 VDD.t27 ppolyf_u r_width=1u r_length=1u
X129 a_1415_2888.t5 a_3935_2586.t1 VDD.t29 ppolyf_u r_width=1u r_length=1u
X130 a_3375_4363.t1 a_4215_3711.t1 VDD.t6 ppolyf_u r_width=1u r_length=1u
X131 a_4775_1584.t0 a_5055_1282.t0 VDD.t13 ppolyf_u r_width=1u r_length=1u
X132 a_6735_4013.t0 a_5335_5015.t1 VDD.t10 ppolyf_u r_width=1u r_length=1u
X133 a_7295_1584.t0 a_7575_1282.t0 VDD.t16 ppolyf_u r_width=1u r_length=1u
X134 E.t0 a_575_1282.t0 VDD.t26 ppolyf_u r_width=1u r_length=1u
X135 a_6735_1584.t1 a_7015_1282.t0 VDD.t32 ppolyf_u r_width=1u r_length=1u
X136 VDD.t52 VDD.t53 VDD.t38 ppolyf_u r_width=1u r_length=1u
X137 a_3655_2888.t1 a_3935_1584.t0 VDD.t7 ppolyf_u r_width=1u r_length=1u
X138 a_8135_2888.t1 a_8415_1584.t1 VDD.t0 ppolyf_u r_width=1u r_length=1u
X139 a_5615_2586.t0 a_5615_1584.t0 VDD.t36 ppolyf_u r_width=1u r_length=1u
X140 a_3375_4013.t0 a_3375_3711.t0 VDD.t1 ppolyf_u r_width=1u r_length=1u
X141 a_5335_4363.t1 a_3935_3711.t0 VDD.t31 ppolyf_u r_width=1u r_length=1u
X142 a_2255_2888.t0 a_2535_2586.t0 VDD.t41 ppolyf_u r_width=1u r_length=1u
X143 B.t3 a_8135_1934.t1 VDD.t15 ppolyf_u r_width=1u r_length=1u
X144 a_1415_5317.t2 a_1415_5317.t3 VDD.t42 ppolyf_u r_width=1u r_length=1u
X145 a_5335_4013.t0 a_5055_3711.t1 VDD.t21 ppolyf_u r_width=1u r_length=1u
X146 a_7855_4013.t1 D.t3 VDD.t43 ppolyf_u r_width=1u r_length=1u
X147 a_6175_1584.t1 a_6175_1282.t0 VDD.t28 ppolyf_u r_width=1u r_length=1u
X148 a_575_3711.t2 a_575_3711.t3 VDD.t20 ppolyf_u r_width=1u r_length=1u
X149 a_7855_1934.t0 F.t1 VDD.t24 ppolyf_u r_width=1u r_length=1u
X150 a_7575_1934.t1 a_6175_1282.t1 VDD.t14 ppolyf_u r_width=1u r_length=1u
X151 a_3095_2236.t0 a_3095_1934.t0 VDD.t27 ppolyf_u r_width=1u r_length=1u
X152 G.t6 a_1695_2586.t1 VDD.t8 ppolyf_u r_width=1u r_length=1u
X153 a_7575_2236.t0 a_7575_1934.t0 VDD.t16 ppolyf_u r_width=1u r_length=1u
X154 a_5055_2236.t1 a_4775_1934.t1 VDD.t13 ppolyf_u r_width=1u r_length=1u
X155 a_1135_5015.t0 a_1135_4013.t0 VDD.t30 ppolyf_u r_width=1u r_length=1u
X156 a_3095_5015.t0 a_4495_3711.t1 VDD.t7 ppolyf_u r_width=1u r_length=1u
X157 a_1135_2888.t0 a_1135_2586.t0 VDD.t25 ppolyf_u r_width=1u r_length=1u
X158 a_575_2236.t0 A.t0 VDD.t26 ppolyf_u r_width=1u r_length=1u
X159 VDD.t56 VDD.t57 VDD.t38 ppolyf_u r_width=1u r_length=1u
X160 a_5895_2888.t0 a_7015_1934.t0 VDD.t32 ppolyf_u r_width=1u r_length=1u
X161 a_3655_2888.t0 a_3095_2236.t1 VDD.t34 ppolyf_u r_width=1u r_length=1u
X162 C.t1 a_1415_4363.t0 VDD.t33 ppolyf_u r_width=1u r_length=1u
X163 a_3935_4665.t0 a_3655_4363.t0 VDD.t29 ppolyf_u r_width=1u r_length=1u
X164 a_5615_4363.t1 a_3375_3711.t1 VDD.t36 ppolyf_u r_width=1u r_length=1u
X165 a_7575_5015.t0 a_8975_3711.t0 VDD.t0 ppolyf_u r_width=1u r_length=1u
X166 a_7295_1584.t1 a_7015_1282.t1 VDD.t37 ppolyf_u r_width=1u r_length=1u
X167 VDD.t54 VDD.t55 VDD.t2 ppolyf_u r_width=1u r_length=1u
X168 a_5615_2888.t0 a_5615_2586.t1 VDD.t35 ppolyf_u r_width=1u r_length=1u
X169 a_8415_4013.t1 H.t0 VDD.t15 ppolyf_u r_width=1u r_length=1u
X170 F.t2 a_8975_1282.t1 VDD.t5 ppolyf_u r_width=1u r_length=1u
X171 a_2815_5317.t0 a_2535_5015.t1 VDD.t42 ppolyf_u r_width=1u r_length=1u
X172 a_6175_2236.t1 a_5895_1934.t0 VDD.t28 ppolyf_u r_width=1u r_length=1u
X173 a_2815_4013.t1 a_3095_3711.t1 VDD.t27 ppolyf_u r_width=1u r_length=1u
X174 a_7855_2586.t0 a_7855_1584.t0 VDD.t24 ppolyf_u r_width=1u r_length=1u
X175 a_6175_2236.t0 a_8135_1934.t0 VDD.t14 ppolyf_u r_width=1u r_length=1u
X176 a_2255_2888.t1 a_575_1282.t3 VDD.t19 ppolyf_u r_width=1u r_length=1u
X177 a_1415_5317.t0 a_1415_5317.t1 VDD.t41 ppolyf_u r_width=1u r_length=1u
X178 a_4775_4013.t0 a_5055_3711.t0 VDD.t13 ppolyf_u r_width=1u r_length=1u
X179 a_4495_2888.t0 a_4775_2586.t0 VDD.t9 ppolyf_u r_width=1u r_length=1u
X180 E.t1 a_575_3711.t0 VDD.t26 ppolyf_u r_width=1u r_length=1u
X181 a_7295_4013.t0 a_7575_3711.t0 VDD.t16 ppolyf_u r_width=1u r_length=1u
X182 a_1135_2888.t1 a_3375_2236.t1 VDD.t6 ppolyf_u r_width=1u r_length=1u
X183 a_6735_4013.t1 a_7015_3711.t1 VDD.t32 ppolyf_u r_width=1u r_length=1u
X184 a_6735_2888.t0 a_5335_1584.t0 VDD.t10 ppolyf_u r_width=1u r_length=1u
X185 VDD.t39 VDD.t40 VDD.t38 ppolyf_u r_width=1u r_length=1u
X186 a_1975_5317.t0 a_1135_4665.t1 VDD.t30 ppolyf_u r_width=1u r_length=1u
X187 a_1415_5317.t4 a_575_4665.t1 VDD.t33 ppolyf_u r_width=1u r_length=1u
X188 a_1415_5317.t5 a_3935_5015.t1 VDD.t29 ppolyf_u r_width=1u r_length=1u
X189 a_7295_2236.t1 a_7015_1934.t1 VDD.t37 ppolyf_u r_width=1u r_length=1u
X190 VDD.t11 VDD.t12 VDD.t2 ppolyf_u r_width=1u r_length=1u
X191 a_1695_4665.t1 a_1415_4363.t1 VDD.t8 ppolyf_u r_width=1u r_length=1u
X192 a_1135_4665.t0 a_1135_4363.t0 VDD.t25 ppolyf_u r_width=1u r_length=1u
X193 a_8415_2586.t0 B.t0 VDD.t5 ppolyf_u r_width=1u r_length=1u
X194 a_5895_2888.t1 a_5055_2236.t0 VDD.t31 ppolyf_u r_width=1u r_length=1u
X195 a_1975_2888.t0 a_3375_2586.t1 VDD.t1 ppolyf_u r_width=1u r_length=1u
X196 a_1695_4665.t0 a_3655_4363.t1 VDD.t34 ppolyf_u r_width=1u r_length=1u
X197 a_6175_4013.t0 a_6175_3711.t0 VDD.t28 ppolyf_u r_width=1u r_length=1u
X198 a_7855_4363.t0 F.t0 VDD.t24 ppolyf_u r_width=1u r_length=1u
X199 a_6455_2888.t1 a_7855_2586.t1 VDD.t43 ppolyf_u r_width=1u r_length=1u
X200 a_5055_2888.t1 a_5335_2586.t1 VDD.t21 ppolyf_u r_width=1u r_length=1u
X201 a_5615_4665.t0 a_5615_4363.t0 VDD.t35 ppolyf_u r_width=1u r_length=1u
X202 a_7575_4363.t1 a_6175_3711.t1 VDD.t14 ppolyf_u r_width=1u r_length=1u
X203 E.t6 a_855_2586.t1 VDD.t20 ppolyf_u r_width=1u r_length=1u
R0 a_2255_5317.t0 a_2255_5317.t1 13.3663
R1 a_2535_5015.t0 a_2535_5015.t1 13.3663
R2 VDD.n291 VDD.t5 9.05773
R3 VDD.n375 VDD.t37 9.05773
R4 VDD.n508 VDD.t21 9.05773
R5 VDD.n999 VDD.t1 9.05773
R6 VDD.n901 VDD.t33 9.05773
R7 VDD.n299 VDD.t0 8.23434
R8 VDD.n387 VDD.t32 8.23434
R9 VDD.n522 VDD.t13 8.23434
R10 VDD.n987 VDD.t27 8.23434
R11 VDD.n893 VDD.t25 8.23434
R12 VDD.n617 VDD.t54 7.09079
R13 VDD.n785 VDD.t50 7.09079
R14 VDD.n51 VDD.t52 7.0013
R15 VDD.n194 VDD.t39 7.0013
R16 VDD.n83 VDD.t46 7.00054
R17 VDD.n240 VDD.t44 7.00054
R18 VDD.n74 VDD.t47 7.00019
R19 VDD.n227 VDD.t45 7.00019
R20 VDD.n67 VDD.t56 6.99979
R21 VDD.n217 VDD.t48 6.99979
R22 VDD.n58 VDD.t57 6.99941
R23 VDD.n204 VDD.t49 6.99941
R24 VDD.n44 VDD.t53 6.99677
R25 VDD.n187 VDD.t40 6.99677
R26 VDD.n610 VDD.t55 6.99412
R27 VDD.n778 VDD.t51 6.99412
R28 VDD.n633 VDD.t11 6.92009
R29 VDD.n803 VDD.t17 6.92009
R30 VDD.n626 VDD.t12 6.91844
R31 VDD.n795 VDD.t18 6.91844
R32 VDD.n655 VDD.t4 6.84254
R33 VDD.n561 VDD.t23 6.84254
R34 VDD.n655 VDD.t3 6.4095
R35 VDD.n561 VDD.t22 6.4095
R36 VDD.n280 VDD.t38 6.17588
R37 VDD.n359 VDD.t16 6.17588
R38 VDD.n488 VDD.t35 6.17588
R39 VDD.n1021 VDD.t34 6.17588
R40 VDD.n913 VDD.t8 6.17588
R41 VDD.n311 VDD.t24 5.3525
R42 VDD.n405 VDD.t10 5.3525
R43 VDD.n544 VDD.t9 5.3525
R44 VDD.n969 VDD.t42 5.3525
R45 VDD.n881 VDD.t20 5.3525
R46 VDD.n347 VDD.t43 3.29404
R47 VDD.n467 VDD.t31 3.29404
R48 VDD.n1042 VDD.t29 3.29404
R49 VDD.n925 VDD.t30 3.29404
R50 VDD.n245 VDD.n244 3.1505
R51 VDD.n182 VDD.n181 3.1505
R52 VDD.n184 VDD.n183 3.1505
R53 VDD.n186 VDD.n185 3.1505
R54 VDD.n189 VDD.n188 3.1505
R55 VDD.n191 VDD.n190 3.1505
R56 VDD.n193 VDD.n192 3.1505
R57 VDD.n197 VDD.n196 3.1505
R58 VDD.n200 VDD.n199 3.1505
R59 VDD.n203 VDD.n202 3.1505
R60 VDD.n207 VDD.n206 3.1505
R61 VDD.n210 VDD.n209 3.1505
R62 VDD.n213 VDD.n212 3.1505
R63 VDD.n216 VDD.n215 3.1505
R64 VDD.n220 VDD.n219 3.1505
R65 VDD.n223 VDD.n222 3.1505
R66 VDD.n226 VDD.n225 3.1505
R67 VDD.n230 VDD.n229 3.1505
R68 VDD.n233 VDD.n232 3.1505
R69 VDD.n236 VDD.n235 3.1505
R70 VDD.n239 VDD.n238 3.1505
R71 VDD.n243 VDD.n242 3.1505
R72 VDD.n773 VDD.n562 3.1505
R73 VDD.n824 VDD.n823 3.1505
R74 VDD.n821 VDD.n820 3.1505
R75 VDD.n818 VDD.n817 3.1505
R76 VDD.n816 VDD.n815 3.1505
R77 VDD.n813 VDD.n812 3.1505
R78 VDD.n811 VDD.n810 3.1505
R79 VDD.n808 VDD.n807 3.1505
R80 VDD.n806 VDD.n805 3.1505
R81 VDD.n802 VDD.n801 3.1505
R82 VDD.n800 VDD.n799 3.1505
R83 VDD.n797 VDD.n796 3.1505
R84 VDD.n794 VDD.n793 3.1505
R85 VDD.n791 VDD.n790 3.1505
R86 VDD.n789 VDD.n788 3.1505
R87 VDD.n787 VDD.n786 3.1505
R88 VDD.n784 VDD.n783 3.1505
R89 VDD.n782 VDD.n781 3.1505
R90 VDD.n780 VDD.n779 3.1505
R91 VDD.n777 VDD.n776 3.1505
R92 VDD.n775 VDD.n774 3.1505
R93 VDD.n826 VDD.n825 3.1505
R94 VDD.n178 VDD.n176 3.1505
R95 VDD.n175 VDD.n173 3.1505
R96 VDD.n172 VDD.n170 3.1505
R97 VDD.n169 VDD.n167 3.1505
R98 VDD.n166 VDD.n164 3.1505
R99 VDD.n163 VDD.n161 3.1505
R100 VDD.n160 VDD.n158 3.1505
R101 VDD.n157 VDD.n155 3.1505
R102 VDD.n154 VDD.n152 3.1505
R103 VDD.n151 VDD.n149 3.1505
R104 VDD.n148 VDD.n146 3.1505
R105 VDD.n145 VDD.n143 3.1505
R106 VDD.n142 VDD.n140 3.1505
R107 VDD.n139 VDD.n137 3.1505
R108 VDD.n136 VDD.n134 3.1505
R109 VDD.n133 VDD.n131 3.1505
R110 VDD.n130 VDD.n128 3.1505
R111 VDD.n127 VDD.n125 3.1505
R112 VDD.n124 VDD.n122 3.1505
R113 VDD.n121 VDD.n119 3.1505
R114 VDD.n118 VDD.n116 3.1505
R115 VDD.n115 VDD.n113 3.1505
R116 VDD.n112 VDD.n110 3.1505
R117 VDD.n109 VDD.n107 3.1505
R118 VDD.n106 VDD.n104 3.1505
R119 VDD.n369 VDD.n368 3.1505
R120 VDD.n375 VDD.n374 3.1505
R121 VDD.n381 VDD.n380 3.1505
R122 VDD.n387 VDD.n386 3.1505
R123 VDD.n393 VDD.n392 3.1505
R124 VDD.n399 VDD.n398 3.1505
R125 VDD.n405 VDD.n404 3.1505
R126 VDD.n411 VDD.n410 3.1505
R127 VDD.n417 VDD.n416 3.1505
R128 VDD.n423 VDD.n422 3.1505
R129 VDD.n429 VDD.n428 3.1505
R130 VDD.n435 VDD.n434 3.1505
R131 VDD.n441 VDD.n440 3.1505
R132 VDD.n447 VDD.n446 3.1505
R133 VDD.n453 VDD.n452 3.1505
R134 VDD.n467 VDD.n466 3.1505
R135 VDD.n473 VDD.n472 3.1505
R136 VDD.n479 VDD.n478 3.1505
R137 VDD.n488 VDD.n487 3.1505
R138 VDD.n495 VDD.n494 3.1505
R139 VDD.n502 VDD.n501 3.1505
R140 VDD.n508 VDD.n507 3.1505
R141 VDD.n516 VDD.n515 3.1505
R142 VDD.n522 VDD.n521 3.1505
R143 VDD.n530 VDD.n529 3.1505
R144 VDD.n537 VDD.n536 3.1505
R145 VDD.n544 VDD.n543 3.1505
R146 VDD.n551 VDD.n550 3.1505
R147 VDD.n558 VDD.n557 3.1505
R148 VDD.n1084 VDD.n1083 3.1505
R149 VDD.n1077 VDD.n1076 3.1505
R150 VDD.n1070 VDD.n1069 3.1505
R151 VDD.n1063 VDD.n1062 3.1505
R152 VDD.n1055 VDD.n1054 3.1505
R153 VDD.n1049 VDD.n1048 3.1505
R154 VDD.n1042 VDD.n1041 3.1505
R155 VDD.n1035 VDD.n1034 3.1505
R156 VDD.n1027 VDD.n1026 3.1505
R157 VDD.n1021 VDD.n1020 3.1505
R158 VDD.n1014 VDD.n1013 3.1505
R159 VDD.n1007 VDD.n1006 3.1505
R160 VDD.n999 VDD.n998 3.1505
R161 VDD.n993 VDD.n992 3.1505
R162 VDD.n987 VDD.n986 3.1505
R163 VDD.n981 VDD.n980 3.1505
R164 VDD.n975 VDD.n974 3.1505
R165 VDD.n969 VDD.n968 3.1505
R166 VDD.n963 VDD.n962 3.1505
R167 VDD.n957 VDD.n956 3.1505
R168 VDD.n951 VDD.n950 3.1505
R169 VDD.n694 VDD.n692 3.1505
R170 VDD.n697 VDD.n695 3.1505
R171 VDD.n700 VDD.n698 3.1505
R172 VDD.n703 VDD.n701 3.1505
R173 VDD.n706 VDD.n704 3.1505
R174 VDD.n709 VDD.n707 3.1505
R175 VDD.n712 VDD.n710 3.1505
R176 VDD.n715 VDD.n713 3.1505
R177 VDD.n718 VDD.n716 3.1505
R178 VDD.n721 VDD.n719 3.1505
R179 VDD.n724 VDD.n722 3.1505
R180 VDD.n727 VDD.n725 3.1505
R181 VDD.n730 VDD.n728 3.1505
R182 VDD.n733 VDD.n731 3.1505
R183 VDD.n736 VDD.n734 3.1505
R184 VDD.n739 VDD.n737 3.1505
R185 VDD.n742 VDD.n740 3.1505
R186 VDD.n745 VDD.n743 3.1505
R187 VDD.n748 VDD.n746 3.1505
R188 VDD.n751 VDD.n749 3.1505
R189 VDD.n754 VDD.n752 3.1505
R190 VDD.n757 VDD.n755 3.1505
R191 VDD.n761 VDD.n759 3.1505
R192 VDD.n764 VDD.n762 3.1505
R193 VDD.n767 VDD.n765 3.1505
R194 VDD.n770 VDD.n768 3.1505
R195 VDD.n772 VDD.n563 3.1505
R196 VDD.n180 VDD.n1 3.1505
R197 VDD.n654 VDD.n653 3.1505
R198 VDD.n87 VDD.n86 3.1505
R199 VDD.n649 VDD.n648 3.1505
R200 VDD.n647 VDD.n646 3.1505
R201 VDD.n645 VDD.n644 3.1505
R202 VDD.n643 VDD.n642 3.1505
R203 VDD.n641 VDD.n640 3.1505
R204 VDD.n639 VDD.n638 3.1505
R205 VDD.n637 VDD.n636 3.1505
R206 VDD.n635 VDD.n634 3.1505
R207 VDD.n632 VDD.n631 3.1505
R208 VDD.n630 VDD.n629 3.1505
R209 VDD.n628 VDD.n627 3.1505
R210 VDD.n625 VDD.n624 3.1505
R211 VDD.n623 VDD.n622 3.1505
R212 VDD.n621 VDD.n620 3.1505
R213 VDD.n619 VDD.n618 3.1505
R214 VDD.n616 VDD.n615 3.1505
R215 VDD.n614 VDD.n613 3.1505
R216 VDD.n612 VDD.n611 3.1505
R217 VDD.n609 VDD.n608 3.1505
R218 VDD.n607 VDD.n606 3.1505
R219 VDD.n605 VDD.n604 3.1505
R220 VDD.n651 VDD.n650 3.1505
R221 VDD.n89 VDD.n88 3.1505
R222 VDD.n770 VDD.n769 3.1505
R223 VDD.n767 VDD.n766 3.1505
R224 VDD.n764 VDD.n763 3.1505
R225 VDD.n761 VDD.n760 3.1505
R226 VDD.n757 VDD.n756 3.1505
R227 VDD.n754 VDD.n753 3.1505
R228 VDD.n751 VDD.n750 3.1505
R229 VDD.n748 VDD.n747 3.1505
R230 VDD.n745 VDD.n744 3.1505
R231 VDD.n742 VDD.n741 3.1505
R232 VDD.n739 VDD.n738 3.1505
R233 VDD.n736 VDD.n735 3.1505
R234 VDD.n733 VDD.n732 3.1505
R235 VDD.n730 VDD.n729 3.1505
R236 VDD.n727 VDD.n726 3.1505
R237 VDD.n724 VDD.n723 3.1505
R238 VDD.n721 VDD.n720 3.1505
R239 VDD.n718 VDD.n717 3.1505
R240 VDD.n715 VDD.n714 3.1505
R241 VDD.n712 VDD.n711 3.1505
R242 VDD.n709 VDD.n708 3.1505
R243 VDD.n706 VDD.n705 3.1505
R244 VDD.n703 VDD.n702 3.1505
R245 VDD.n700 VDD.n699 3.1505
R246 VDD.n697 VDD.n696 3.1505
R247 VDD.n694 VDD.n693 3.1505
R248 VDD.n951 VDD.n949 3.1505
R249 VDD.n957 VDD.n955 3.1505
R250 VDD.n963 VDD.n961 3.1505
R251 VDD.n969 VDD.n967 3.1505
R252 VDD.n975 VDD.n973 3.1505
R253 VDD.n981 VDD.n979 3.1505
R254 VDD.n987 VDD.n985 3.1505
R255 VDD.n993 VDD.n991 3.1505
R256 VDD.n999 VDD.n997 3.1505
R257 VDD.n1007 VDD.n1005 3.1505
R258 VDD.n1014 VDD.n1012 3.1505
R259 VDD.n1021 VDD.n1019 3.1505
R260 VDD.n1027 VDD.n1025 3.1505
R261 VDD.n1035 VDD.n1033 3.1505
R262 VDD.n1042 VDD.n1040 3.1505
R263 VDD.n1049 VDD.n1047 3.1505
R264 VDD.n1055 VDD.n1053 3.1505
R265 VDD.n1063 VDD.n1061 3.1505
R266 VDD.n1070 VDD.n1068 3.1505
R267 VDD.n1077 VDD.n1075 3.1505
R268 VDD.n1084 VDD.n1082 3.1505
R269 VDD.n558 VDD.n556 3.1505
R270 VDD.n551 VDD.n549 3.1505
R271 VDD.n544 VDD.n542 3.1505
R272 VDD.n537 VDD.n535 3.1505
R273 VDD.n530 VDD.n528 3.1505
R274 VDD.n522 VDD.n520 3.1505
R275 VDD.n516 VDD.n514 3.1505
R276 VDD.n508 VDD.n506 3.1505
R277 VDD.n502 VDD.n500 3.1505
R278 VDD.n495 VDD.n493 3.1505
R279 VDD.n488 VDD.n486 3.1505
R280 VDD.n479 VDD.n477 3.1505
R281 VDD.n473 VDD.n471 3.1505
R282 VDD.n467 VDD.n465 3.1505
R283 VDD.n453 VDD.n451 3.1505
R284 VDD.n447 VDD.n445 3.1505
R285 VDD.n441 VDD.n439 3.1505
R286 VDD.n435 VDD.n433 3.1505
R287 VDD.n429 VDD.n427 3.1505
R288 VDD.n423 VDD.n421 3.1505
R289 VDD.n417 VDD.n415 3.1505
R290 VDD.n411 VDD.n409 3.1505
R291 VDD.n405 VDD.n403 3.1505
R292 VDD.n399 VDD.n397 3.1505
R293 VDD.n393 VDD.n391 3.1505
R294 VDD.n387 VDD.n385 3.1505
R295 VDD.n381 VDD.n379 3.1505
R296 VDD.n375 VDD.n373 3.1505
R297 VDD.n369 VDD.n367 3.1505
R298 VDD.n106 VDD.n105 3.1505
R299 VDD.n109 VDD.n108 3.1505
R300 VDD.n112 VDD.n111 3.1505
R301 VDD.n115 VDD.n114 3.1505
R302 VDD.n118 VDD.n117 3.1505
R303 VDD.n121 VDD.n120 3.1505
R304 VDD.n124 VDD.n123 3.1505
R305 VDD.n127 VDD.n126 3.1505
R306 VDD.n130 VDD.n129 3.1505
R307 VDD.n133 VDD.n132 3.1505
R308 VDD.n136 VDD.n135 3.1505
R309 VDD.n139 VDD.n138 3.1505
R310 VDD.n142 VDD.n141 3.1505
R311 VDD.n145 VDD.n144 3.1505
R312 VDD.n148 VDD.n147 3.1505
R313 VDD.n151 VDD.n150 3.1505
R314 VDD.n154 VDD.n153 3.1505
R315 VDD.n157 VDD.n156 3.1505
R316 VDD.n160 VDD.n159 3.1505
R317 VDD.n163 VDD.n162 3.1505
R318 VDD.n166 VDD.n165 3.1505
R319 VDD.n169 VDD.n168 3.1505
R320 VDD.n172 VDD.n171 3.1505
R321 VDD.n175 VDD.n174 3.1505
R322 VDD.n178 VDD.n177 3.1505
R323 VDD.n85 VDD.n84 3.1505
R324 VDD.n82 VDD.n81 3.1505
R325 VDD.n80 VDD.n79 3.1505
R326 VDD.n78 VDD.n77 3.1505
R327 VDD.n76 VDD.n75 3.1505
R328 VDD.n73 VDD.n72 3.1505
R329 VDD.n71 VDD.n70 3.1505
R330 VDD.n69 VDD.n68 3.1505
R331 VDD.n66 VDD.n65 3.1505
R332 VDD.n64 VDD.n63 3.1505
R333 VDD.n62 VDD.n61 3.1505
R334 VDD.n60 VDD.n59 3.1505
R335 VDD.n57 VDD.n56 3.1505
R336 VDD.n55 VDD.n54 3.1505
R337 VDD.n53 VDD.n52 3.1505
R338 VDD.n50 VDD.n49 3.1505
R339 VDD.n48 VDD.n47 3.1505
R340 VDD.n46 VDD.n45 3.1505
R341 VDD.n39 VDD.n38 3.1505
R342 VDD.n37 VDD.n36 3.1505
R343 VDD.n35 VDD.n34 3.1505
R344 VDD.n33 VDD.n32 3.1505
R345 VDD.n31 VDD.n30 3.1505
R346 VDD.n287 VDD.n286 3.1505
R347 VDD.n291 VDD.n290 3.1505
R348 VDD.n295 VDD.n294 3.1505
R349 VDD.n299 VDD.n298 3.1505
R350 VDD.n303 VDD.n302 3.1505
R351 VDD.n307 VDD.n306 3.1505
R352 VDD.n311 VDD.n310 3.1505
R353 VDD.n315 VDD.n314 3.1505
R354 VDD.n319 VDD.n318 3.1505
R355 VDD.n323 VDD.n322 3.1505
R356 VDD.n327 VDD.n326 3.1505
R357 VDD.n331 VDD.n330 3.1505
R358 VDD.n335 VDD.n334 3.1505
R359 VDD.n339 VDD.n338 3.1505
R360 VDD.n343 VDD.n342 3.1505
R361 VDD.n347 VDD.n346 3.1505
R362 VDD.n351 VDD.n350 3.1505
R363 VDD.n355 VDD.n354 3.1505
R364 VDD.n359 VDD.n358 3.1505
R365 VDD.n363 VDD.n362 3.1505
R366 VDD.n369 VDD.n366 3.1505
R367 VDD.n375 VDD.n372 3.1505
R368 VDD.n381 VDD.n378 3.1505
R369 VDD.n387 VDD.n384 3.1505
R370 VDD.n393 VDD.n390 3.1505
R371 VDD.n399 VDD.n396 3.1505
R372 VDD.n405 VDD.n402 3.1505
R373 VDD.n411 VDD.n408 3.1505
R374 VDD.n417 VDD.n414 3.1505
R375 VDD.n423 VDD.n420 3.1505
R376 VDD.n429 VDD.n426 3.1505
R377 VDD.n435 VDD.n432 3.1505
R378 VDD.n441 VDD.n438 3.1505
R379 VDD.n447 VDD.n444 3.1505
R380 VDD.n453 VDD.n450 3.1505
R381 VDD.n464 VDD.n463 3.1505
R382 VDD.n467 VDD.n464 3.1505
R383 VDD.n473 VDD.n470 3.1505
R384 VDD.n479 VDD.n476 3.1505
R385 VDD.n485 VDD.n484 3.1505
R386 VDD.n488 VDD.n485 3.1505
R387 VDD.n492 VDD.n491 3.1505
R388 VDD.n495 VDD.n492 3.1505
R389 VDD.n499 VDD.n498 3.1505
R390 VDD.n502 VDD.n499 3.1505
R391 VDD.n508 VDD.n505 3.1505
R392 VDD.n513 VDD.n512 3.1505
R393 VDD.n516 VDD.n513 3.1505
R394 VDD.n522 VDD.n519 3.1505
R395 VDD.n527 VDD.n526 3.1505
R396 VDD.n530 VDD.n527 3.1505
R397 VDD.n534 VDD.n533 3.1505
R398 VDD.n537 VDD.n534 3.1505
R399 VDD.n541 VDD.n540 3.1505
R400 VDD.n544 VDD.n541 3.1505
R401 VDD.n548 VDD.n547 3.1505
R402 VDD.n551 VDD.n548 3.1505
R403 VDD.n555 VDD.n554 3.1505
R404 VDD.n558 VDD.n555 3.1505
R405 VDD.n1081 VDD.n1080 3.1505
R406 VDD.n1084 VDD.n1081 3.1505
R407 VDD.n1074 VDD.n1073 3.1505
R408 VDD.n1077 VDD.n1074 3.1505
R409 VDD.n1067 VDD.n1066 3.1505
R410 VDD.n1070 VDD.n1067 3.1505
R411 VDD.n1060 VDD.n1059 3.1505
R412 VDD.n1063 VDD.n1060 3.1505
R413 VDD.n1055 VDD.n1052 3.1505
R414 VDD.n1046 VDD.n1045 3.1505
R415 VDD.n1049 VDD.n1046 3.1505
R416 VDD.n1039 VDD.n1038 3.1505
R417 VDD.n1042 VDD.n1039 3.1505
R418 VDD.n1032 VDD.n1031 3.1505
R419 VDD.n1035 VDD.n1032 3.1505
R420 VDD.n1027 VDD.n1024 3.1505
R421 VDD.n1018 VDD.n1017 3.1505
R422 VDD.n1021 VDD.n1018 3.1505
R423 VDD.n1011 VDD.n1010 3.1505
R424 VDD.n1014 VDD.n1011 3.1505
R425 VDD.n1004 VDD.n1003 3.1505
R426 VDD.n1007 VDD.n1004 3.1505
R427 VDD.n999 VDD.n996 3.1505
R428 VDD.n993 VDD.n990 3.1505
R429 VDD.n987 VDD.n984 3.1505
R430 VDD.n981 VDD.n978 3.1505
R431 VDD.n975 VDD.n972 3.1505
R432 VDD.n969 VDD.n966 3.1505
R433 VDD.n963 VDD.n960 3.1505
R434 VDD.n957 VDD.n954 3.1505
R435 VDD.n951 VDD.n948 3.1505
R436 VDD.n945 VDD.n944 3.1505
R437 VDD.n941 VDD.n940 3.1505
R438 VDD.n937 VDD.n936 3.1505
R439 VDD.n933 VDD.n932 3.1505
R440 VDD.n929 VDD.n928 3.1505
R441 VDD.n925 VDD.n924 3.1505
R442 VDD.n921 VDD.n920 3.1505
R443 VDD.n917 VDD.n916 3.1505
R444 VDD.n913 VDD.n912 3.1505
R445 VDD.n909 VDD.n908 3.1505
R446 VDD.n905 VDD.n904 3.1505
R447 VDD.n901 VDD.n900 3.1505
R448 VDD.n897 VDD.n896 3.1505
R449 VDD.n893 VDD.n892 3.1505
R450 VDD.n889 VDD.n888 3.1505
R451 VDD.n885 VDD.n884 3.1505
R452 VDD.n881 VDD.n880 3.1505
R453 VDD.n877 VDD.n876 3.1505
R454 VDD.n873 VDD.n872 3.1505
R455 VDD.n869 VDD.n868 3.1505
R456 VDD.n865 VDD.n864 3.1505
R457 VDD.n594 VDD.n593 3.1505
R458 VDD.n596 VDD.n595 3.1505
R459 VDD.n598 VDD.n597 3.1505
R460 VDD.n600 VDD.n599 3.1505
R461 VDD.n602 VDD.n601 3.1505
R462 VDD.n273 VDD.n272 3.1505
R463 VDD.n272 VDD.n271 3.1505
R464 VDD.n850 VDD.n849 3.1505
R465 VDD.n849 VDD.n848 3.1505
R466 VDD.n853 VDD.n852 3.1505
R467 VDD.n852 VDD.n851 3.1505
R468 VDD.n856 VDD.n855 3.1505
R469 VDD.n855 VDD.n854 3.1505
R470 VDD.n859 VDD.n858 3.1505
R471 VDD.n858 VDD.n857 3.1505
R472 VDD.n863 VDD.n862 3.1505
R473 VDD.n862 VDD.n861 3.1505
R474 VDD.n867 VDD.n866 3.1505
R475 VDD.n866 VDD.n865 3.1505
R476 VDD.n871 VDD.n870 3.1505
R477 VDD.n870 VDD.n869 3.1505
R478 VDD.n875 VDD.n874 3.1505
R479 VDD.n874 VDD.n873 3.1505
R480 VDD.n879 VDD.n878 3.1505
R481 VDD.n878 VDD.n877 3.1505
R482 VDD.n883 VDD.n882 3.1505
R483 VDD.n882 VDD.n881 3.1505
R484 VDD.n887 VDD.n886 3.1505
R485 VDD.n886 VDD.n885 3.1505
R486 VDD.n891 VDD.n890 3.1505
R487 VDD.n890 VDD.n889 3.1505
R488 VDD.n895 VDD.n894 3.1505
R489 VDD.n894 VDD.n893 3.1505
R490 VDD.n899 VDD.n898 3.1505
R491 VDD.n898 VDD.n897 3.1505
R492 VDD.n903 VDD.n902 3.1505
R493 VDD.n902 VDD.n901 3.1505
R494 VDD.n907 VDD.n906 3.1505
R495 VDD.n906 VDD.n905 3.1505
R496 VDD.n911 VDD.n910 3.1505
R497 VDD.n910 VDD.n909 3.1505
R498 VDD.n915 VDD.n914 3.1505
R499 VDD.n914 VDD.n913 3.1505
R500 VDD.n919 VDD.n918 3.1505
R501 VDD.n918 VDD.n917 3.1505
R502 VDD.n923 VDD.n922 3.1505
R503 VDD.n922 VDD.n921 3.1505
R504 VDD.n927 VDD.n926 3.1505
R505 VDD.n926 VDD.n925 3.1505
R506 VDD.n931 VDD.n930 3.1505
R507 VDD.n930 VDD.n929 3.1505
R508 VDD.n935 VDD.n934 3.1505
R509 VDD.n934 VDD.n933 3.1505
R510 VDD.n939 VDD.n938 3.1505
R511 VDD.n938 VDD.n937 3.1505