* NGSPICE file created from PGA_DECODER_magic_flat.ext - technology: gf180mcuC

.subckt PGA_DECODER_magic_flat A C VDD VSS S1 S2 S3 S4 S5 S6 B
X0 a_587_3452# AND_3_magic_3.A.t2 a_439_3441# VSS.t6 nfet_03v3 ad=89.8f pd=0.92u as=0.155p ps=1.64u w=0.25u l=0.28u
X1 VDD.t65 VDD.t63 VDD.t65 VDD.t64 pfet_03v3 ad=0 pd=0 as=89.8f ps=0.92u w=0.25u l=0.28u
X2 a_1091_5366# AND_3_magic_5.B.t2 a_587_5366# VSS.t0 nfet_03v3 ad=89.8f pd=0.92u as=89.8f ps=0.92u w=0.25u l=0.28u
X3 a_439_2188# A.t0 a_587_2199# VSS.t52 nfet_03v3 ad=89.8f pd=0.92u as=89.8f ps=0.92u w=0.25u l=0.28u
X4 a_439_2188# A.t1 VDD.t105 VDD.t13 pfet_03v3 ad=89.8f pd=0.92u as=0.155p ps=1.64u w=0.25u l=0.28u
X5 a_439_3441# C.t0 VDD.t81 VDD.t80 pfet_03v3 ad=89.8f pd=0.92u as=89.8f ps=0.92u w=0.25u l=0.28u
X6 a_439_3441# B.t0 VDD.t21 VDD.t20 pfet_03v3 ad=89.8f pd=0.92u as=89.8f ps=0.92u w=0.25u l=0.28u
X7 AND_3_magic_5.C C.t1 VSS.t34 VSS.t33 nfet_03v3 ad=0.155p pd=1.64u as=89.8f ps=0.92u w=0.25u l=0.28u
X8 VDD a_439_3441# S4.t2 VDD.t115 pfet_03v3 ad=0.155p pd=1.64u as=89.8f ps=0.92u w=0.25u l=0.28u
X9 VSS AND_3_magic_5.C.t2 a_1091_4113# VSS.t53 nfet_03v3 ad=89.8f pd=0.92u as=89.8f ps=0.92u w=0.25u l=0.28u
X10 VDD B.t1 a_439_4102# VDD.t22 pfet_03v3 ad=89.8f pd=0.92u as=89.8f ps=0.92u w=0.25u l=0.28u
X11 VDD A.t2 AND_3_magic_3.A VDD.t106 pfet_03v3 ad=89.8f pd=0.92u as=0.155p ps=1.64u w=0.25u l=0.28u
X12 a_400_841# B.t2 VDD.t26 VDD.t25 pfet_03v3 ad=89.8f pd=0.92u as=0.155p ps=1.64u w=0.25u l=0.28u
X13 a_252_1525# C.t2 VSS.t36 VSS.t35 nfet_03v3 ad=0.155p pd=1.64u as=89.8f ps=0.92u w=0.25u l=0.28u
X14 S2 a_439_5355# VDD.t140 VDD.t70 pfet_03v3 ad=89.8f pd=0.92u as=89.8f ps=0.92u w=0.25u l=0.28u
X15 a_252_1525# C.t3 a_400_841# VDD.t30 pfet_03v3 ad=0.155p pd=1.64u as=89.8f ps=0.92u w=0.25u l=0.28u
X16 VDD AND_3_magic_5.C.t3 a_439_6016# VDD.t109 pfet_03v3 ad=89.8f pd=0.92u as=89.8f ps=0.92u w=0.25u l=0.28u
X17 VDD A.t3 a_1333_1282# VDD.t135 pfet_03v3 ad=0.13p pd=1.02u as=0.13p ps=1.02u w=0.5u l=0.28u
X18 AND_1.A a_252_1525# VDD.t29 VDD.t27 pfet_03v3 ad=0.155p pd=1.64u as=0.155p ps=1.64u w=0.25u l=0.28u
X19 a_587_2199# A.t4 a_439_2188# VSS.t80 nfet_03v3 ad=89.8f pd=0.92u as=0.155p ps=1.64u w=0.25u l=0.28u
X20 VDD AND_3_magic_3.A.t3 a_439_3441# VDD.t15 pfet_03v3 ad=89.8f pd=0.92u as=89.8f ps=0.92u w=0.25u l=0.28u
X21 a_587_4113# B.t3 a_1091_4113# VSS.t9 nfet_03v3 ad=89.8f pd=0.92u as=89.8f ps=0.92u w=0.25u l=0.28u
X22 a_1091_5366# AND_3_magic_5.B.t3 a_587_5366# VSS.t26 nfet_03v3 ad=89.8f pd=0.92u as=89.8f ps=0.92u w=0.25u l=0.28u
X23 a_587_5366# AND_3_magic_3.A.t4 a_439_5355# VSS.t5 nfet_03v3 ad=89.8f pd=0.92u as=89.8f ps=0.92u w=0.25u l=0.28u
X24 S2 a_439_5355# VSS.t89 VSS.t31 nfet_03v3 ad=0.155p pd=1.64u as=89.8f ps=0.92u w=0.25u l=0.28u
X25 VDD.t62 VDD.t61 VDD.t62 VDD.t39 pfet_03v3 ad=0 pd=0 as=89.8f ps=0.92u w=0.25u l=0.28u
X26 VSS B.t4 a_252_1525# VSS.t10 nfet_03v3 ad=89.8f pd=0.92u as=0.155p ps=1.64u w=0.25u l=0.28u
X27 a_439_4102# AND_3_magic_5.C.t4 VDD.t112 VDD.t34 pfet_03v3 ad=89.8f pd=0.92u as=89.8f ps=0.92u w=0.25u l=0.28u
X28 VSS A.t5 a_1185_1271# VSS.t81 nfet_03v3 ad=89.8f pd=0.92u as=89.8f ps=0.92u w=0.25u l=0.28u
X29 a_439_4102# B.t5 VDD.t141 VDD.t84 pfet_03v3 ad=89.8f pd=0.92u as=89.8f ps=0.92u w=0.25u l=0.28u
X30 a_1091_6027# AND_3_magic_5.C.t5 VSS.t57 VSS.t56 nfet_03v3 ad=89.8f pd=0.92u as=89.8f ps=0.92u w=0.25u l=0.28u
X31 VDD a_439_4102# S3.t2 VDD.t72 pfet_03v3 ad=0.155p pd=1.64u as=89.8f ps=0.92u w=0.25u l=0.28u
X32 VDD C.t4 AND_3_magic_5.C VDD.t31 pfet_03v3 ad=89.8f pd=0.92u as=0.155p ps=1.64u w=0.25u l=0.28u
X33 a_1091_4113# B.t6 a_587_4113# VSS.t71 nfet_03v3 ad=89.8f pd=0.92u as=89.8f ps=0.92u w=0.25u l=0.28u
X34 S1 a_439_6016# VDD.t79 VDD.t78 pfet_03v3 ad=89.8f pd=0.92u as=89.8f ps=0.92u w=0.25u l=0.28u
X35 a_439_3441# AND_3_magic_3.A.t5 VDD.t14 VDD.t13 pfet_03v3 ad=89.8f pd=0.92u as=0.155p ps=1.64u w=0.25u l=0.28u
X36 a_439_5355# AND_3_magic_3.A.t6 a_587_5366# VSS.t4 nfet_03v3 ad=89.8f pd=0.92u as=89.8f ps=0.92u w=0.25u l=0.28u
X37 VDD AND_3_magic_5.B.t4 a_439_5355# VDD.t22 pfet_03v3 ad=89.8f pd=0.92u as=89.8f ps=0.92u w=0.25u l=0.28u
X38 a_1185_1271# AND_1.A a_1333_1282# VSS.t44 nfet_03v3 ad=89.8f pd=0.92u as=89.8f ps=0.92u w=0.25u l=0.28u
X39 VDD AND_3_magic_3.A.t7 a_439_4102# VDD.t7 pfet_03v3 ad=89.8f pd=0.92u as=89.8f ps=0.92u w=0.25u l=0.28u
X40 VSS AND_3_magic_5.C.t6 a_1091_6027# VSS.t58 nfet_03v3 ad=89.8f pd=0.92u as=89.8f ps=0.92u w=0.25u l=0.28u
X41 VDD.t60 VDD.t58 VDD.t60 VDD.t59 pfet_03v3 ad=0 pd=0 as=89.8f ps=0.92u w=0.25u l=0.28u
X42 S6 a_1333_1282# VDD.t19 VDD.t18 pfet_03v3 ad=0.22p pd=1.88u as=0.13p ps=1.02u w=0.5u l=0.28u
X43 a_400_841# B.t7 VDD.t142 VDD.t25 pfet_03v3 ad=89.8f pd=0.92u as=0.155p ps=1.64u w=0.25u l=0.28u
X44 a_587_5366# AND_3_magic_3.A.t8 a_439_5355# VSS.t3 nfet_03v3 ad=89.8f pd=0.92u as=0.155p ps=1.64u w=0.25u l=0.28u
X45 a_1091_4113# B.t8 a_587_4113# VSS.t72 nfet_03v3 ad=89.8f pd=0.92u as=89.8f ps=0.92u w=0.25u l=0.28u
X46 a_587_4113# AND_3_magic_3.A.t9 a_439_4102# VSS.t2 nfet_03v3 ad=89.8f pd=0.92u as=89.8f ps=0.92u w=0.25u l=0.28u
X47 a_1333_1282# AND_1.A a_1185_1271# VSS.t43 nfet_03v3 ad=89.8f pd=0.92u as=0.155p ps=1.64u w=0.25u l=0.28u
X48 a_439_5355# C.t5 VDD.t35 VDD.t34 pfet_03v3 ad=89.8f pd=0.92u as=89.8f ps=0.92u w=0.25u l=0.28u
X49 S3 a_439_4102# VSS.t30 VSS.t29 nfet_03v3 ad=0.155p pd=1.64u as=89.8f ps=0.92u w=0.25u l=0.28u
X50 a_439_4102# AND_3_magic_3.A.t10 VDD.t9 VDD.t5 pfet_03v3 ad=89.8f pd=0.92u as=0.155p ps=1.64u w=0.25u l=0.28u
X51 a_439_5355# AND_3_magic_5.B.t5 VDD.t85 VDD.t84 pfet_03v3 ad=89.8f pd=0.92u as=89.8f ps=0.92u w=0.25u l=0.28u
X52 a_1185_1271# A.t6 VSS.t85 VSS.t84 nfet_03v3 ad=0.155p pd=1.64u as=89.8f ps=0.92u w=0.25u l=0.28u
X53 VDD AND_3_magic_5.B.t6 a_439_6016# VDD.t86 pfet_03v3 ad=89.8f pd=0.92u as=89.8f ps=0.92u w=0.25u l=0.28u
X54 VSS AND_3_magic_5.C.t7 a_1091_6027# VSS.t38 nfet_03v3 ad=89.8f pd=0.92u as=89.8f ps=0.92u w=0.25u l=0.28u
X55 AND_1.A a_252_1525# VDD.t28 VDD.t27 pfet_03v3 ad=0.155p pd=1.64u as=0.155p ps=1.64u w=0.25u l=0.28u
X56 VDD a_439_5355# S2.t1 VDD.t72 pfet_03v3 ad=0.155p pd=1.64u as=89.8f ps=0.92u w=0.25u l=0.28u
X57 a_252_1525# C.t6 a_400_841# VDD.t30 pfet_03v3 ad=0.155p pd=1.64u as=89.8f ps=0.92u w=0.25u l=0.28u
X58 a_439_4102# AND_3_magic_3.A.t11 a_587_4113# VSS.t1 nfet_03v3 ad=89.8f pd=0.92u as=89.8f ps=0.92u w=0.25u l=0.28u
X59 a_587_6027# AND_3_magic_5.B.t7 a_1091_6027# VSS.t37 nfet_03v3 ad=89.8f pd=0.92u as=89.8f ps=0.92u w=0.25u l=0.28u
X60 VDD AND_3_magic_3.A.t12 a_439_5355# VDD.t7 pfet_03v3 ad=89.8f pd=0.92u as=89.8f ps=0.92u w=0.25u l=0.28u
X61 a_1091_3452# C.t7 VSS.t25 VSS.t24 nfet_03v3 ad=89.8f pd=0.92u as=89.8f ps=0.92u w=0.25u l=0.28u
X62 AND_3_magic_5.B B.t9 VSS.t42 VSS.t41 nfet_03v3 ad=0.155p pd=1.64u as=89.8f ps=0.92u w=0.25u l=0.28u
X63 a_400_841# B.t10 VDD.t96 VDD.t25 pfet_03v3 ad=89.8f pd=0.92u as=0.155p ps=1.64u w=0.25u l=0.28u
X64 a_439_6016# AND_3_magic_5.C.t8 VDD.t101 VDD.t100 pfet_03v3 ad=89.8f pd=0.92u as=89.8f ps=0.92u w=0.25u l=0.28u
X65 a_439_6016# AND_3_magic_5.B.t8 VDD.t90 VDD.t89 pfet_03v3 ad=89.8f pd=0.92u as=89.8f ps=0.92u w=0.25u l=0.28u
X66 AND_3_magic_5.C C.t8 VDD.t37 VDD.t36 pfet_03v3 ad=0.155p pd=1.64u as=89.8f ps=0.92u w=0.25u l=0.28u
X67 VDD.t57 VDD.t56 VDD.t57 VDD.t52 pfet_03v3 ad=0 pd=0 as=89.8f ps=0.92u w=0.25u l=0.28u
X68 a_587_4113# AND_3_magic_3.A.t13 a_439_4102# VSS.t6 nfet_03v3 ad=89.8f pd=0.92u as=0.155p ps=1.64u w=0.25u l=0.28u
X69 VDD a_439_6016# S1.t1 VDD.t75 pfet_03v3 ad=0.155p pd=1.64u as=89.8f ps=0.92u w=0.25u l=0.28u
X70 a_1091_6027# AND_3_magic_5.B.t9 a_587_6027# VSS.t0 nfet_03v3 ad=89.8f pd=0.92u as=89.8f ps=0.92u w=0.25u l=0.28u
X71 a_439_5355# AND_3_magic_3.A.t14 VDD.t6 VDD.t5 pfet_03v3 ad=89.8f pd=0.92u as=0.155p ps=1.64u w=0.25u l=0.28u
X72 VSS C.t9 a_1091_3452# VSS.t68 nfet_03v3 ad=89.8f pd=0.92u as=89.8f ps=0.92u w=0.25u l=0.28u
X73 VSS.t21 VSS.t19 VSS.t21 VSS.t20 nfet_03v3 ad=0 pd=0 as=0.155p ps=1.64u w=0.25u l=0.28u
X74 VDD AND_3_magic_3.A.t15 a_439_6016# VDD.t2 pfet_03v3 ad=89.8f pd=0.92u as=89.8f ps=0.92u w=0.25u l=0.28u
X75 VDD AND_3_magic_5.C.t9 a_439_2188# VDD.t102 pfet_03v3 ad=89.8f pd=0.92u as=89.8f ps=0.92u w=0.25u l=0.28u
X76 a_1091_2199# AND_3_magic_5.C.t10 VSS.t48 VSS.t47 nfet_03v3 ad=89.8f pd=0.92u as=89.8f ps=0.92u w=0.25u l=0.28u
X77 VDD.t55 VDD.t54 VDD.t55 VDD.t27 pfet_03v3 ad=0 pd=0 as=0.155p ps=1.64u w=0.25u l=0.28u
X78 AND_3_magic_3.A A.t7 VSS.t87 VSS.t86 nfet_03v3 ad=0.155p pd=1.64u as=89.8f ps=0.92u w=0.25u l=0.28u
X79 a_1091_6027# AND_3_magic_5.B.t10 a_587_6027# VSS.t26 nfet_03v3 ad=89.8f pd=0.92u as=89.8f ps=0.92u w=0.25u l=0.28u
X80 a_252_1525# C.t10 a_400_841# VDD.t30 pfet_03v3 ad=0.155p pd=1.64u as=89.8f ps=0.92u w=0.25u l=0.28u
X81 a_587_6027# AND_3_magic_3.A.t16 a_439_6016# VSS.t5 nfet_03v3 ad=89.8f pd=0.92u as=89.8f ps=0.92u w=0.25u l=0.28u
X82 VSS C.t11 a_1091_3452# VSS.t53 nfet_03v3 ad=89.8f pd=0.92u as=89.8f ps=0.92u w=0.25u l=0.28u
X83 a_439_6016# AND_3_magic_3.A.t17 VDD.t1 VDD.t0 pfet_03v3 ad=89.8f pd=0.92u as=0.155p ps=1.64u w=0.25u l=0.28u
X84 S1 a_439_6016# VSS.t32 VSS.t31 nfet_03v3 ad=0.155p pd=1.64u as=89.8f ps=0.92u w=0.25u l=0.28u
X85 VSS AND_3_magic_5.C.t11 a_1091_2199# VSS.t49 nfet_03v3 ad=89.8f pd=0.92u as=89.8f ps=0.92u w=0.25u l=0.28u
X86 S6 a_1333_1282# VSS.t8 VSS.t7 nfet_03v3 ad=0.155p pd=1.64u as=0.155p ps=1.64u w=0.25u l=0.28u
X87 VDD.t53 VDD.t51 VDD.t53 VDD.t52 pfet_03v3 ad=0 pd=0 as=89.8f ps=0.92u w=0.25u l=0.28u
X88 S5 a_439_2188# VDD.t120 VDD.t113 pfet_03v3 ad=89.8f pd=0.92u as=89.8f ps=0.92u w=0.25u l=0.28u
X89 VSS.t18 VSS.t16 VSS.t18 VSS.t17 nfet_03v3 ad=0 pd=0 as=0.155p ps=1.64u w=0.25u l=0.28u
X90 a_439_6016# AND_3_magic_3.A.t18 a_587_6027# VSS.t4 nfet_03v3 ad=89.8f pd=0.92u as=89.8f ps=0.92u w=0.25u l=0.28u
X91 a_400_841# B.t11 VDD.t97 VDD.t25 pfet_03v3 ad=89.8f pd=0.92u as=0.155p ps=1.64u w=0.25u l=0.28u
X92 a_587_3452# B.t12 a_1091_3452# VSS.t9 nfet_03v3 ad=89.8f pd=0.92u as=89.8f ps=0.92u w=0.25u l=0.28u
X93 a_1333_1282# AND_1.A VDD.t99 VDD.t98 pfet_03v3 ad=0.13p pd=1.02u as=0.22p ps=1.88u w=0.5u l=0.28u
X94 VDD.t50 VDD.t49 VDD.t50 VDD.t45 pfet_03v3 ad=0 pd=0 as=89.8f ps=0.92u w=0.25u l=0.28u
X95 VDD C.t12 a_439_3441# VDD.t102 pfet_03v3 ad=89.8f pd=0.92u as=89.8f ps=0.92u w=0.25u l=0.28u
X96 a_1091_5366# C.t13 VSS.t77 VSS.t56 nfet_03v3 ad=89.8f pd=0.92u as=89.8f ps=0.92u w=0.25u l=0.28u
X97 VSS AND_3_magic_5.C.t12 a_1091_2199# VSS.t64 nfet_03v3 ad=89.8f pd=0.92u as=89.8f ps=0.92u w=0.25u l=0.28u
X98 a_1091_3452# B.t13 a_587_3452# VSS.t71 nfet_03v3 ad=89.8f pd=0.92u as=89.8f ps=0.92u w=0.25u l=0.28u
X99 VDD.t48 VDD.t47 VDD.t48 VDD.t42 pfet_03v3 ad=0 pd=0 as=89.8f ps=0.92u w=0.25u l=0.28u
X100 a_587_6027# AND_3_magic_3.A.t19 a_439_6016# VSS.t3 nfet_03v3 ad=89.8f pd=0.92u as=0.155p ps=1.64u w=0.25u l=0.28u
X101 VDD AND_3_magic_5.B.t11 a_439_2188# VDD.t66 pfet_03v3 ad=89.8f pd=0.92u as=89.8f ps=0.92u w=0.25u l=0.28u
X102 a_587_2199# AND_3_magic_5.B.t12 a_1091_2199# VSS.t27 nfet_03v3 ad=89.8f pd=0.92u as=89.8f ps=0.92u w=0.25u l=0.28u
X103 VSS C.t14 a_1091_5366# VSS.t58 nfet_03v3 ad=89.8f pd=0.92u as=89.8f ps=0.92u w=0.25u l=0.28u
X104 VSS.t15 VSS.t13 VSS.t15 VSS.t14 nfet_03v3 ad=0 pd=0 as=0.155p ps=1.64u w=0.25u l=0.28u
X105 S4 a_439_3441# VDD.t114 VDD.t113 pfet_03v3 ad=89.8f pd=0.92u as=89.8f ps=0.92u w=0.25u l=0.28u
X106 VDD AND_3_magic_5.C.t13 a_439_4102# VDD.t91 pfet_03v3 ad=89.8f pd=0.92u as=89.8f ps=0.92u w=0.25u l=0.28u
X107 a_1091_3452# B.t14 a_587_3452# VSS.t72 nfet_03v3 ad=89.8f pd=0.92u as=89.8f ps=0.92u w=0.25u l=0.28u
X108 AND_3_magic_5.B B.t15 VDD.t129 VDD.t128 pfet_03v3 ad=0.155p pd=1.64u as=89.8f ps=0.92u w=0.25u l=0.28u
X109 AND_1.A a_252_1525# VSS.t23 VSS.t22 nfet_03v3 ad=0.155p pd=1.64u as=0.155p ps=1.64u w=0.25u l=0.28u
X110 a_587_3452# AND_3_magic_3.A.t20 a_439_3441# VSS.t2 nfet_03v3 ad=89.8f pd=0.92u as=89.8f ps=0.92u w=0.25u l=0.28u
X111 a_1091_2199# AND_3_magic_5.B.t13 a_587_2199# VSS.t28 nfet_03v3 ad=89.8f pd=0.92u as=89.8f ps=0.92u w=0.25u l=0.28u
X112 VDD.t46 VDD.t44 VDD.t46 VDD.t45 pfet_03v3 ad=0 pd=0 as=89.8f ps=0.92u w=0.25u l=0.28u
X113 S4 a_439_3441# VSS.t61 VSS.t29 nfet_03v3 ad=0.155p pd=1.64u as=89.8f ps=0.92u w=0.25u l=0.28u
X114 a_439_2188# AND_3_magic_5.C.t14 VDD.t123 VDD.t80 pfet_03v3 ad=89.8f pd=0.92u as=89.8f ps=0.92u w=0.25u l=0.28u
X115 a_252_1525# C.t15 a_400_841# VDD.t30 pfet_03v3 ad=0.155p pd=1.64u as=89.8f ps=0.92u w=0.25u l=0.28u
X116 a_439_2188# AND_3_magic_5.B.t14 VDD.t69 VDD.t20 pfet_03v3 ad=89.8f pd=0.92u as=89.8f ps=0.92u w=0.25u l=0.28u
X117 a_1091_4113# AND_3_magic_5.C.t15 VSS.t67 VSS.t24 nfet_03v3 ad=89.8f pd=0.92u as=89.8f ps=0.92u w=0.25u l=0.28u
X118 VSS C.t16 a_1091_5366# VSS.t38 nfet_03v3 ad=89.8f pd=0.92u as=89.8f ps=0.92u w=0.25u l=0.28u
X119 VDD a_439_2188# S5.t1 VDD.t115 pfet_03v3 ad=0.155p pd=1.64u as=89.8f ps=0.92u w=0.25u l=0.28u
X120 VDD.t43 VDD.t41 VDD.t43 VDD.t42 pfet_03v3 ad=0 pd=0 as=89.8f ps=0.92u w=0.25u l=0.28u
X121 S3 a_439_4102# VDD.t71 VDD.t70 pfet_03v3 ad=89.8f pd=0.92u as=89.8f ps=0.92u w=0.25u l=0.28u
X122 VDD B.t16 AND_3_magic_5.B VDD.t130 pfet_03v3 ad=89.8f pd=0.92u as=0.155p ps=1.64u w=0.25u l=0.28u
X123 a_439_3441# AND_3_magic_3.A.t21 a_587_3452# VSS.t1 nfet_03v3 ad=89.8f pd=0.92u as=89.8f ps=0.92u w=0.25u l=0.28u
X124 VDD B.t17 a_439_3441# VDD.t66 pfet_03v3 ad=89.8f pd=0.92u as=89.8f ps=0.92u w=0.25u l=0.28u
X125 a_1091_2199# AND_3_magic_5.B.t15 a_587_2199# VSS.t90 nfet_03v3 ad=89.8f pd=0.92u as=89.8f ps=0.92u w=0.25u l=0.28u
X126 a_587_5366# AND_3_magic_5.B.t16 a_1091_5366# VSS.t37 nfet_03v3 ad=89.8f pd=0.92u as=89.8f ps=0.92u w=0.25u l=0.28u
X127 a_587_2199# A.t8 a_439_2188# VSS.t88 nfet_03v3 ad=89.8f pd=0.92u as=89.8f ps=0.92u w=0.25u l=0.28u
X128 VDD A.t9 a_439_2188# VDD.t15 pfet_03v3 ad=89.8f pd=0.92u as=89.8f ps=0.92u w=0.25u l=0.28u
X129 VSS AND_3_magic_5.C.t16 a_1091_4113# VSS.t68 nfet_03v3 ad=89.8f pd=0.92u as=89.8f ps=0.92u w=0.25u l=0.28u
X130 S5 a_439_2188# VSS.t63 VSS.t62 nfet_03v3 ad=0.155p pd=1.64u as=89.8f ps=0.92u w=0.25u l=0.28u
X131 VDD C.t17 a_439_5355# VDD.t91 pfet_03v3 ad=89.8f pd=0.92u as=89.8f ps=0.92u w=0.25u l=0.28u
X132 AND_3_magic_3.A A.t10 VDD.t127 VDD.t126 pfet_03v3 ad=0.155p pd=1.64u as=89.8f ps=0.92u w=0.25u l=0.28u
X133 VDD.t40 VDD.t38 VDD.t40 VDD.t39 pfet_03v3 ad=0 pd=0 as=89.8f ps=0.92u w=0.25u l=0.28u
R0 AND_3_magic_3.A.n14 AND_3_magic_3.A.t20 33.6616
R1 AND_3_magic_3.A.n10 AND_3_magic_3.A.t9 33.6616
R2 AND_3_magic_3.A.n4 AND_3_magic_3.A.t4 33.6616
R3 AND_3_magic_3.A.n1 AND_3_magic_3.A.t16 33.6616
R4 AND_3_magic_3.A.n9 AND_3_magic_3.A.t7 33.5692
R5 AND_3_magic_3.A.n0 AND_3_magic_3.A.t15 33.5692
R6 AND_3_magic_3.A.n16 AND_3_magic_3.A.t3 33.4389
R7 AND_3_magic_3.A.n6 AND_3_magic_3.A.t12 33.4389
R8 AND_3_magic_3.A.n15 AND_3_magic_3.A.n14 22.7116
R9 AND_3_magic_3.A.n11 AND_3_magic_3.A.n10 22.7116
R10 AND_3_magic_3.A.n5 AND_3_magic_3.A.n4 22.7116
R11 AND_3_magic_3.A.n2 AND_3_magic_3.A.n1 22.7116
R12 AND_3_magic_3.A.n17 AND_3_magic_3.A.n15 16.8166
R13 AND_3_magic_3.A.n12 AND_3_magic_3.A.n11 16.8166
R14 AND_3_magic_3.A.n7 AND_3_magic_3.A.n5 16.8166
R15 AND_3_magic_3.A.n3 AND_3_magic_3.A.n2 16.8166
R16 AND_3_magic_3.A AND_3_magic_3.A.n18 15.6576
R17 AND_3_magic_3.A.n9 AND_3_magic_3.A.t10 11.4719
R18 AND_3_magic_3.A.n0 AND_3_magic_3.A.t17 11.4719
R19 AND_3_magic_3.A.n16 AND_3_magic_3.A.t5 11.3416
R20 AND_3_magic_3.A.n6 AND_3_magic_3.A.t14 11.3416
R21 AND_3_magic_3.A.n14 AND_3_magic_3.A.t21 10.9505
R22 AND_3_magic_3.A.n15 AND_3_magic_3.A.t2 10.9505
R23 AND_3_magic_3.A.n10 AND_3_magic_3.A.t11 10.9505
R24 AND_3_magic_3.A.n11 AND_3_magic_3.A.t13 10.9505
R25 AND_3_magic_3.A.n4 AND_3_magic_3.A.t6 10.9505
R26 AND_3_magic_3.A.n5 AND_3_magic_3.A.t8 10.9505
R27 AND_3_magic_3.A.n1 AND_3_magic_3.A.t18 10.9505
R28 AND_3_magic_3.A.n2 AND_3_magic_3.A.t19 10.9505
R29 AND_3_magic_3.A AND_3_magic_3.A.n17 6.68888
R30 AND_3_magic_3.A AND_3_magic_3.A.n12 6.68888
R31 AND_3_magic_3.A AND_3_magic_3.A.n7 6.68888
R32 AND_3_magic_3.A AND_3_magic_3.A.n3 6.68888
R33 AND_3_magic_3.A.n8 AND_3_magic_3.A 4.6195
R34 AND_3_magic_3.A.n17 AND_3_magic_3.A.n16 4.17193
R35 AND_3_magic_3.A.n7 AND_3_magic_3.A.n6 4.17193
R36 AND_3_magic_3.A.n12 AND_3_magic_3.A.n9 4.04157
R37 AND_3_magic_3.A.n3 AND_3_magic_3.A.n0 4.04157
R38 AND_3_magic_3.A.n18 AND_3_magic_3.A 2.90789
R39 AND_3_magic_3.A.n13 AND_3_magic_3.A 2.90789
R40 AND_3_magic_3.A.n8 AND_3_magic_3.A 2.90789
R41 AND_3_magic_3.A.n18 AND_3_magic_3.A.n13 1.71211
R42 AND_3_magic_3.A.n13 AND_3_magic_3.A.n8 1.29425
R43 VSS.n254 VSS.n253 8568.18
R44 VSS.n163 VSS.n162 8146.86
R45 VSS.n240 VSS.n239 4225.09
R46 VSS.n133 VSS.n132 4223.98
R47 VSS.n134 VSS.n133 3250
R48 VSS.n72 VSS.n71 1846.96
R49 VSS.n120 VSS.n119 1010.97
R50 VSS.n268 VSS.n267 688.559
R51 VSS.n255 VSS.n254 686.29
R52 VSS.n135 VSS.n134 326.76
R53 VSS.n47 VSS.t38 162.014
R54 VSS.n109 VSS.t53 162.014
R55 VSS.n271 VSS.t14 151.483
R56 VSS.n259 VSS.t20 151.483
R57 VSS.n245 VSS.t17 150.632
R58 VSS.n38 VSS.t58 142.572
R59 VSS.n100 VSS.t68 142.572
R60 VSS.n210 VSS.t64 125.677
R61 VSS.n30 VSS.t37 123.132
R62 VSS.n92 VSS.t9 123.132
R63 VSS.n175 VSS.t44 120.65
R64 VSS.n210 VSS.t84 110.597
R65 VSS.n174 VSS.t49 110.597
R66 VSS.n152 VSS.t88 106.668
R67 VSS.n20 VSS.t5 103.689
R68 VSS.n82 VSS.t2 103.689
R69 VSS.n227 VSS.t33 96.3988
R70 VSS.n263 VSS.t41 96.3988
R71 VSS.n249 VSS.t86 95.8572
R72 VSS.n164 VSS.t27 95.5148
R73 VSS.n164 VSS.n163 85.4607
R74 VSS.n17 VSS.t4 84.2478
R75 VSS.n11 VSS.t3 84.2478
R76 VSS.n79 VSS.t1 84.2478
R77 VSS.n73 VSS.t6 84.2478
R78 VSS.n26 VSS.t0 64.8061
R79 VSS.n88 VSS.t71 64.8061
R80 VSS.t35 VSS.t80 63.3338
R81 VSS.n158 VSS.t28 50.2712
R82 VSS.n35 VSS.t26 45.3644
R83 VSS.n97 VSS.t72 45.3644
R84 VSS.n181 VSS.t10 40.0005
R85 VSS.n169 VSS.t90 35.19
R86 VSS.n195 VSS.t22 33.3338
R87 VSS.n44 VSS.t56 25.9227
R88 VSS.n106 VSS.t24 25.9227
R89 VSS.n207 VSS.n206 25.1358
R90 VSS.n143 VSS.t35 23.3338
R91 VSS.n181 VSS.n180 23.3338
R92 VSS.n220 VSS.t7 22.6223
R93 VSS.n207 VSS.t47 20.1088
R94 VSS.n129 VSS.t81 20.1088
R95 VSS.n242 VSS.t16 16.6451
R96 VSS.n235 VSS.t19 16.6451
R97 VSS.n231 VSS.t13 16.6451
R98 VSS.n264 VSS.n262 10.7922
R99 VSS.n262 VSS.n260 10.7922
R100 VSS.n250 VSS.n248 10.7922
R101 VSS.n248 VSS.n246 10.7922
R102 VSS.n167 VSS.n165 10.4059
R103 VSS.n95 VSS.n93 10.2672
R104 VSS.n33 VSS.n31 10.2672
R105 VSS.n192 VSS.n190 10.0121
R106 VSS.n136 VSS.t8 9.13659
R107 VSS.n194 VSS.t23 9.04072
R108 VSS.n241 VSS.t87 6.73354
R109 VSS.n234 VSS.t42 6.73354
R110 VSS.n230 VSS.t34 6.73354
R111 VSS.n191 VSS.t52 6.66717
R112 VSS.n54 VSS.t31 6.48106
R113 VSS.n116 VSS.t29 6.48106
R114 VSS.n226 VSS.n223 5.96355
R115 VSS.n67 VSS.n66 5.6705
R116 VSS.n67 VSS.t61 5.6705
R117 VSS.n69 VSS.n68 5.6705
R118 VSS.n69 VSS.t25 5.6705
R119 VSS.n62 VSS.n61 5.6705
R120 VSS.n62 VSS.t30 5.6705
R121 VSS.n64 VSS.n63 5.6705
R122 VSS.n64 VSS.t67 5.6705
R123 VSS.n140 VSS.n139 5.6705
R124 VSS.n140 VSS.t85 5.6705
R125 VSS.n125 VSS.n124 5.6705
R126 VSS.n125 VSS.t63 5.6705
R127 VSS.n127 VSS.n126 5.6705
R128 VSS.n127 VSS.t48 5.6705
R129 VSS.n178 VSS.n177 5.6705
R130 VSS.n178 VSS.t36 5.6705
R131 VSS.n6 VSS.n5 5.6705
R132 VSS.n6 VSS.t89 5.6705
R133 VSS.n8 VSS.n7 5.6705
R134 VSS.n8 VSS.t77 5.6705
R135 VSS.n1 VSS.n0 5.6705
R136 VSS.n1 VSS.t32 5.6705
R137 VSS.n3 VSS.n2 5.6705
R138 VSS.n3 VSS.t57 5.6705
R139 VSS.n136 VSS.n135 5.30629
R140 VSS.n202 VSS.n176 5.2005
R141 VSS.n138 VSS.n137 5.2005
R142 VSS.n206 VSS.n205 5.2005
R143 VSS.n203 VSS.n175 5.2005
R144 VSS.n217 VSS.t62 5.02757
R145 VSS.n175 VSS.n174 5.02757
R146 VSS.n166 VSS.t43 5.02757
R147 VSS.n244 VSS.n240 4.42558
R148 VSS.n145 VSS.n142 4.38823
R149 VSS.n75 VSS.n72 4.37961
R150 VSS.n13 VSS.n10 4.37961
R151 VSS.n183 VSS.n179 4.36486
R152 VSS.n70 VSS.n69 3.92833
R153 VSS.n65 VSS.n64 3.92833
R154 VSS.n128 VSS.n127 3.92833
R155 VSS.n9 VSS.n8 3.92833
R156 VSS.n4 VSS.n3 3.92833
R157 VSS.n204 VSS.n140 3.46659
R158 VSS.n184 VSS.n178 3.37072
R159 VSS.n70 VSS.n67 3.27094
R160 VSS.n65 VSS.n62 3.27094
R161 VSS.n128 VSS.n125 3.27094
R162 VSS.n9 VSS.n6 3.27094
R163 VSS.n4 VSS.n1 3.27094
R164 VSS.n241 VSS.t18 2.836
R165 VSS.n234 VSS.t21 2.836
R166 VSS.n230 VSS.t15 2.836
R167 VSS.n223 VSS.n222 2.72101
R168 VSS.n123 VSS.n122 2.71312
R169 VSS.n60 VSS.n59 2.70609
R170 VSS.n200 VSS.n199 2.6005
R171 VSS.n199 VSS.n198 2.6005
R172 VSS.n197 VSS.n196 2.6005
R173 VSS.n196 VSS.n195 2.6005
R174 VSS.n193 VSS.n192 2.6005
R175 VSS.n192 VSS.n191 2.6005
R176 VSS.n190 VSS.n188 2.6005
R177 VSS.n190 VSS.n189 2.6005
R178 VSS.n187 VSS.n186 2.6005
R179 VSS.n186 VSS.n185 2.6005
R180 VSS.n182 VSS.n181 2.6005
R181 VSS.n157 VSS.n156 2.6005
R182 VSS.n156 VSS.n155 2.6005
R183 VSS.n154 VSS.n153 2.6005
R184 VSS.n153 VSS.n152 2.6005
R185 VSS.n151 VSS.n150 2.6005
R186 VSS.n150 VSS.n149 2.6005
R187 VSS.n148 VSS.n147 2.6005
R188 VSS.n147 VSS.n146 2.6005
R189 VSS.n144 VSS.n143 2.6005
R190 VSS.n56 VSS.n55 2.6005
R191 VSS.n55 VSS.n54 2.6005
R192 VSS.n52 VSS.n51 2.6005
R193 VSS.n51 VSS.n50 2.6005
R194 VSS.n49 VSS.n48 2.6005
R195 VSS.n48 VSS.n47 2.6005
R196 VSS.n46 VSS.n45 2.6005
R197 VSS.n45 VSS.n44 2.6005
R198 VSS.n43 VSS.n42 2.6005
R199 VSS.n42 VSS.n41 2.6005
R200 VSS.n40 VSS.n39 2.6005
R201 VSS.n39 VSS.n38 2.6005
R202 VSS.n37 VSS.n36 2.6005
R203 VSS.n36 VSS.n35 2.6005
R204 VSS.n34 VSS.n33 2.6005
R205 VSS.n33 VSS.n32 2.6005
R206 VSS.n31 VSS.n29 2.6005
R207 VSS.n31 VSS.n30 2.6005
R208 VSS.n28 VSS.n27 2.6005
R209 VSS.n27 VSS.n26 2.6005
R210 VSS.n25 VSS.n24 2.6005
R211 VSS.n24 VSS.n23 2.6005
R212 VSS.n22 VSS.n21 2.6005
R213 VSS.n21 VSS.n20 2.6005
R214 VSS.n19 VSS.n18 2.6005
R215 VSS.n18 VSS.n17 2.6005
R216 VSS.n16 VSS.n15 2.6005
R217 VSS.n15 VSS.n14 2.6005
R218 VSS.n12 VSS.n11 2.6005
R219 VSS.n59 VSS.n58 2.6005
R220 VSS.n58 VSS.n57 2.6005
R221 VSS.n118 VSS.n117 2.6005
R222 VSS.n117 VSS.n116 2.6005
R223 VSS.n114 VSS.n113 2.6005
R224 VSS.n113 VSS.n112 2.6005
R225 VSS.n111 VSS.n110 2.6005
R226 VSS.n110 VSS.n109 2.6005
R227 VSS.n108 VSS.n107 2.6005
R228 VSS.n107 VSS.n106 2.6005
R229 VSS.n105 VSS.n104 2.6005
R230 VSS.n104 VSS.n103 2.6005
R231 VSS.n102 VSS.n101 2.6005
R232 VSS.n101 VSS.n100 2.6005
R233 VSS.n99 VSS.n98 2.6005
R234 VSS.n98 VSS.n97 2.6005
R235 VSS.n96 VSS.n95 2.6005
R236 VSS.n95 VSS.n94 2.6005
R237 VSS.n93 VSS.n91 2.6005
R238 VSS.n93 VSS.n92 2.6005
R239 VSS.n90 VSS.n89 2.6005
R240 VSS.n89 VSS.n88 2.6005
R241 VSS.n87 VSS.n86 2.6005
R242 VSS.n86 VSS.n85 2.6005
R243 VSS.n84 VSS.n83 2.6005
R244 VSS.n83 VSS.n82 2.6005
R245 VSS.n81 VSS.n80 2.6005
R246 VSS.n80 VSS.n79 2.6005
R247 VSS.n78 VSS.n77 2.6005
R248 VSS.n77 VSS.n76 2.6005
R249 VSS.n74 VSS.n73 2.6005
R250 VSS.n122 VSS.n121 2.6005
R251 VSS.n121 VSS.n120 2.6005
R252 VSS.n219 VSS.n218 2.6005
R253 VSS.n218 VSS.n217 2.6005
R254 VSS.n215 VSS.n214 2.6005
R255 VSS.n214 VSS.n213 2.6005
R256 VSS.n212 VSS.n211 2.6005
R257 VSS.n211 VSS.n210 2.6005
R258 VSS.n209 VSS.n208 2.6005
R259 VSS.n208 VSS.n207 2.6005
R260 VSS.n131 VSS.n130 2.6005
R261 VSS.n130 VSS.n129 2.6005
R262 VSS.n173 VSS.n172 2.6005
R263 VSS.n174 VSS.n173 2.6005
R264 VSS.n171 VSS.n170 2.6005
R265 VSS.n170 VSS.n169 2.6005
R266 VSS.n168 VSS.n167 2.6005
R267 VSS.n167 VSS.n166 2.6005
R268 VSS.n165 VSS.n161 2.6005
R269 VSS.n165 VSS.n164 2.6005
R270 VSS.n160 VSS.n159 2.6005
R271 VSS.n159 VSS.n158 2.6005
R272 VSS.n222 VSS.n221 2.6005
R273 VSS.n221 VSS.n220 2.6005
R274 VSS.n252 VSS.n238 2.6005
R275 VSS.n238 VSS.n237 2.6005
R276 VSS.n251 VSS.n250 2.6005
R277 VSS.n250 VSS.n249 2.6005
R278 VSS.n248 VSS 2.6005
R279 VSS.n248 VSS.n247 2.6005
R280 VSS.n246 VSS.n245 2.6005
R281 VSS.n266 VSS.n233 2.6005
R282 VSS.n233 VSS.n232 2.6005
R283 VSS.n265 VSS.n264 2.6005
R284 VSS.n264 VSS.n263 2.6005
R285 VSS.n262 VSS 2.6005
R286 VSS.n262 VSS.n261 2.6005
R287 VSS.n260 VSS.n258 2.6005
R288 VSS.n260 VSS.n259 2.6005
R289 VSS.n257 VSS.n256 2.6005
R290 VSS.n256 VSS.n255 2.6005
R291 VSS.n226 VSS.n225 2.6005
R292 VSS.n225 VSS.n224 2.6005
R293 VSS.n229 VSS.n228 2.6005
R294 VSS.n228 VSS.n227 2.6005
R295 VSS VSS.n276 2.6005
R296 VSS.n276 VSS.n275 2.6005
R297 VSS.n273 VSS.n272 2.6005
R298 VSS.n272 VSS.n271 2.6005
R299 VSS.n270 VSS.n269 2.6005
R300 VSS.n269 VSS.n268 2.6005
R301 VSS.n123 VSS.n60 2.45364
R302 VSS.n223 VSS.n123 2.44979
R303 VSS.n246 VSS.n244 1.74196
R304 VSS.n145 VSS.n144 1.72392
R305 VSS.n13 VSS.n12 1.7162
R306 VSS.n75 VSS.n74 1.7162
R307 VSS.n183 VSS.n182 1.70135
R308 VSS.n242 VSS.n241 1.70051
R309 VSS.n235 VSS.n234 1.70051
R310 VSS.n231 VSS.n230 1.70051
R311 VSS.n60 VSS 1.09979
R312 VSS.n78 VSS.n75 0.547544
R313 VSS.n16 VSS.n13 0.547544
R314 VSS.n148 VSS.n145 0.544635
R315 VSS.n184 VSS.n183 0.53486
R316 VSS.n257 VSS.n252 0.515798
R317 VSS.n270 VSS.n266 0.505625
R318 VSS.n244 VSS.n243 0.477715
R319 VSS.n201 VSS.n200 0.450204
R320 VSS.n115 VSS.n65 0.32137
R321 VSS.n115 VSS.n70 0.32137
R322 VSS.n216 VSS.n128 0.32137
R323 VSS.n53 VSS.n4 0.32137
R324 VSS.n53 VSS.n9 0.32137
R325 VSS.n202 VSS.n201 0.248691
R326 VSS.n205 VSS.n138 0.1955
R327 VSS.n203 VSS.n202 0.193921
R328 VSS.n252 VSS.n251 0.125375
R329 VSS.n251 VSS 0.125375
R330 VSS.n266 VSS.n265 0.125375
R331 VSS.n265 VSS 0.125375
R332 VSS.n258 VSS.n257 0.125375
R333 VSS.n229 VSS.n226 0.125375
R334 VSS VSS.n229 0.125375
R335 VSS.n273 VSS.n270 0.125375
R336 VSS.n200 VSS.n197 0.0976053
R337 VSS.n188 VSS.n187 0.0976053
R338 VSS.n222 VSS.n219 0.0975588
R339 VSS.n215 VSS.n212 0.0975588
R340 VSS.n212 VSS.n209 0.0975588
R341 VSS.n209 VSS.n131 0.0975588
R342 VSS.n172 VSS.n131 0.0975588
R343 VSS.n172 VSS.n171 0.0975588
R344 VSS.n171 VSS.n168 0.0975588
R345 VSS.n161 VSS.n160 0.0975588
R346 VSS.n160 VSS.n157 0.0975588
R347 VSS.n157 VSS.n154 0.0975588
R348 VSS.n154 VSS.n151 0.0975588
R349 VSS.n151 VSS.n148 0.0975588
R350 VSS.n122 VSS.n118 0.0966165
R351 VSS.n114 VSS.n111 0.0966165
R352 VSS.n111 VSS.n108 0.0966165
R353 VSS.n108 VSS.n105 0.0966165
R354 VSS.n105 VSS.n102 0.0966165
R355 VSS.n102 VSS.n99 0.0966165
R356 VSS.n99 VSS.n96 0.0966165
R357 VSS.n91 VSS.n90 0.0966165
R358 VSS.n90 VSS.n87 0.0966165
R359 VSS.n87 VSS.n84 0.0966165
R360 VSS.n84 VSS.n81 0.0966165
R361 VSS.n81 VSS.n78 0.0966165
R362 VSS.n59 VSS.n56 0.0966165
R363 VSS.n52 VSS.n49 0.0966165
R364 VSS.n49 VSS.n46 0.0966165
R365 VSS.n46 VSS.n43 0.0966165
R366 VSS.n43 VSS.n40 0.0966165
R367 VSS.n40 VSS.n37 0.0966165
R368 VSS.n37 VSS.n34 0.0966165
R369 VSS.n29 VSS.n28 0.0966165
R370 VSS.n28 VSS.n25 0.0966165
R371 VSS.n25 VSS.n22 0.0966165
R372 VSS.n22 VSS.n19 0.0966165
R373 VSS.n19 VSS.n16 0.0966165
R374 VSS.n193 VSS 0.0960263
R375 VSS.n91 VSS 0.0957427
R376 VSS.n29 VSS 0.0957427
R377 VSS VSS.n203 0.0944474
R378 VSS.n243 VSS.n242 0.0905
R379 VSS.n236 VSS.n235 0.0905
R380 VSS.n274 VSS.n231 0.0905
R381 VSS.n243 VSS 0.08825
R382 VSS.n236 VSS 0.08825
R383 VSS VSS.n274 0.08825
R384 VSS.n219 VSS.n216 0.0763824
R385 VSS.n118 VSS.n115 0.0756456
R386 VSS.n56 VSS.n53 0.0756456
R387 VSS.n197 VSS.n194 0.0747105
R388 VSS.n138 VSS.n136 0.0715526
R389 VSS.n204 VSS 0.0676053
R390 VSS.n161 VSS.n141 0.0499118
R391 VSS.n141 VSS 0.0472647
R392 VSS.n258 VSS.n236 0.037625
R393 VSS.n274 VSS.n273 0.037625
R394 VSS.n194 VSS.n193 0.0233947
R395 VSS.n205 VSS.n204 0.0226053
R396 VSS.n187 VSS.n184 0.0218158
R397 VSS.n216 VSS.n215 0.0216765
R398 VSS.n115 VSS.n114 0.0214709
R399 VSS.n53 VSS.n52 0.0214709
R400 VSS.n188 VSS 0.00207895
R401 VSS.n168 VSS 0.00138235
R402 VSS.n96 VSS 0.00137379
R403 VSS.n34 VSS 0.00137379
R404 VDD.t98 VDD.n220 284.437
R405 VDD.n245 VDD.t98 170.881
R406 VDD.n249 VDD.t18 147.625
R407 VDD.n53 VDD.t78 96.0457
R408 VDD.n43 VDD.t109 84.7463
R409 VDD.n258 VDD.t106 75.2467
R410 VDD.n274 VDD.t31 73.5038
R411 VDD.n253 VDD.t130 73.5038
R412 VDD.n33 VDD.t59 73.4468
R413 VDD.n231 VDD.t30 64.9948
R414 VDD.n24 VDD.t89 62.1474
R415 VDD.n127 VDD.t70 55.9829
R416 VDD.n201 VDD.t113 55.9829
R417 VDD.n14 VDD.t0 53.828
R418 VDD.n117 VDD.t91 49.3968
R419 VDD.n191 VDD.t102 49.3968
R420 VDD.n261 VDD.t126 47.8628
R421 VDD.n214 VDD.t36 47.8628
R422 VDD.n269 VDD.t128 47.8628
R423 VDD.n20 VDD.t2 47.0815
R424 VDD.n107 VDD.t39 42.8106
R425 VDD.n181 VDD.t45 42.8106
R426 VDD.n98 VDD.t84 36.2244
R427 VDD.n172 VDD.t20 36.2244
R428 VDD.n30 VDD.t86 35.782
R429 VDD.n88 VDD.t5 32.5123
R430 VDD.n162 VDD.t13 32.5123
R431 VDD.n94 VDD.t7 27.4429
R432 VDD.n168 VDD.t15 27.4429
R433 VDD.n40 VDD.t100 24.4826
R434 VDD.n104 VDD.t22 20.8567
R435 VDD.n178 VDD.t66 20.8567
R436 VDD.n10 VDD.t58 18.4701
R437 VDD.n6 VDD.t63 18.4701
R438 VDD.n74 VDD.t47 18.4701
R439 VDD.n70 VDD.t41 18.4701
R440 VDD.n82 VDD.t38 18.4701
R441 VDD.n78 VDD.t61 18.4701
R442 VDD.n148 VDD.t56 18.4701
R443 VDD.n144 VDD.t51 18.4701
R444 VDD.n156 VDD.t49 18.4701
R445 VDD.n152 VDD.t44 18.4701
R446 VDD.n223 VDD.t54 17.4273
R447 VDD.n228 VDD.t25 16.5878
R448 VDD.n241 VDD.t27 14.3073
R449 VDD.n114 VDD.t34 14.2705
R450 VDD.n188 VDD.t80 14.2705
R451 VDD.n50 VDD.t64 13.1832
R452 VDD.n270 VDD.n268 9.713
R453 VDD.n268 VDD.n254 9.713
R454 VDD.n262 VDD.n260 9.713
R455 VDD.n13 VDD.t1 9.36138
R456 VDD.n62 VDD.n2 9.36138
R457 VDD.n136 VDD.n66 9.36138
R458 VDD.n136 VDD.n65 9.36138
R459 VDD.n87 VDD.t9 9.36138
R460 VDD.n87 VDD.t6 9.36138
R461 VDD.n210 VDD.n140 9.36138
R462 VDD.n210 VDD.n139 9.36138
R463 VDD.n161 VDD.t105 9.36138
R464 VDD.n161 VDD.t14 9.36138
R465 VDD.n221 VDD.t29 9.12573
R466 VDD.n224 VDD.t96 9.12573
R467 VDD.n238 VDD.n236 9.01096
R468 VDD.n221 VDD.t28 8.9005
R469 VDD.n226 VDD.t142 8.9005
R470 VDD.n225 VDD.t26 8.9005
R471 VDD.n224 VDD.t97 8.9005
R472 VDD.n41 VDD.n39 8.88511
R473 VDD.n115 VDD.n113 8.77265
R474 VDD.n189 VDD.n187 8.77265
R475 VDD.n124 VDD.t42 7.68436
R476 VDD.n198 VDD.t52 7.68436
R477 VDD.n246 VDD.t99 6.74137
R478 VDD.n213 VDD.n212 6.49074
R479 VDD.n12 VDD.n11 6.3005
R480 VDD.n12 VDD.t90 6.3005
R481 VDD.n9 VDD.n8 6.3005
R482 VDD.n9 VDD.t60 6.3005
R483 VDD.n7 VDD.t101 6.3005
R484 VDD.n5 VDD.n4 6.3005
R485 VDD.n5 VDD.t65 6.3005
R486 VDD.n3 VDD.t79 6.3005
R487 VDD.n73 VDD.n72 6.3005
R488 VDD.n71 VDD.t48 6.3005
R489 VDD.n71 VDD.t71 6.3005
R490 VDD.n69 VDD.n68 6.3005
R491 VDD.n67 VDD.t43 6.3005
R492 VDD.n67 VDD.t140 6.3005
R493 VDD.n81 VDD.n80 6.3005
R494 VDD.n79 VDD.t40 6.3005
R495 VDD.n79 VDD.t112 6.3005
R496 VDD.n77 VDD.n76 6.3005
R497 VDD.n75 VDD.t62 6.3005
R498 VDD.n75 VDD.t35 6.3005
R499 VDD.n86 VDD.n85 6.3005
R500 VDD.n86 VDD.t141 6.3005
R501 VDD.n84 VDD.n83 6.3005
R502 VDD.n84 VDD.t85 6.3005
R503 VDD.n147 VDD.n146 6.3005
R504 VDD.n147 VDD.t57 6.3005
R505 VDD.n145 VDD.t120 6.3005
R506 VDD.n143 VDD.n142 6.3005