* NGSPICE file created from Folded_Diff_Op_Amp_Layout_flat.ext - technology: gf180mcuC

.subckt Folded_Diff_Op_Amp_Layout_flat VDD BD IND IPD VSS VB4 VB2 VB3 VB1 VND VPD
+ IBIAS1 VBIASN VOUT VBM VCD IBIAS4 IBIAS3 IBS OUT_P OUT_N IBIAS2 IBIAS VCM IVS IB4
+ IB2 IB3 IB5 IN_P IN_N OUT1 OUT2
X0 VSS VB4.t32 IND.t42 VSS.t221 nfet_03v3 ad=0.749p pd=3.4u as=0.749p ps=3.4u w=2.88u l=0.28u
X1 VDD.t1396 VDD.t1395 VDD.t1396 VDD.t1228 pfet_03v3 ad=1.38p pd=7.14u as=0 ps=0 w=3.13u l=0.28u
X2 VDD IBIAS2.t122 OUT_N.t243 VDD.t43 pfet_03v3 ad=0.78p pd=3.52u as=0.78p ps=3.52u w=3u l=0.28u
X3 VSS.t598 VSS.t597 VSS.t598 VSS.t493 nfet_03v3 ad=0.44p pd=2.88u as=0 ps=0 w=1u l=0.28u
X4 VDD IBIAS2.t123 OUT_N.t242 VDD.t311 pfet_03v3 ad=0.78p pd=3.52u as=0.78p ps=3.52u w=3u l=0.28u
X5 VDD IBIAS2.t124 OUT_P.t230 VDD.t314 pfet_03v3 ad=0.78p pd=3.52u as=0.78p ps=3.52u w=3u l=0.28u
X6 VCD VCM.t0 VBM.t25 VSS.t599 nfet_03v3 ad=0.26p pd=1.52u as=0.26p ps=1.52u w=1u l=0.28u
X7 IND IN_N.t0 BD.t58 VDD.t519 pfet_03v3 ad=1.65p pd=8.38u as=0.975p ps=4.27u w=3.75u l=0.28u
X8 VDD IBIAS2.t125 OUT_P.t229 VDD.t317 pfet_03v3 ad=0.78p pd=3.52u as=1.32p ps=6.88u w=3u l=0.28u
X9 VDD IBIAS2.t126 OUT_P.t228 VDD.t91 pfet_03v3 ad=0.78p pd=3.52u as=0.78p ps=3.52u w=3u l=0.28u
X10 IVS IBIAS3.t21 VDD.t807 VDD.t306 pfet_03v3 ad=0.78p pd=3.52u as=0.78p ps=3.52u w=3u l=0.28u
X11 VDD VB1.t34 VPD.t16 VDD.t209 pfet_03v3 ad=0.814p pd=3.65u as=0.814p ps=3.65u w=3.13u l=0.28u
X12 VDD.t1394 VDD.t1393 VDD.t1394 VDD.t1182 pfet_03v3 ad=1.32p pd=6.88u as=0 ps=0 w=3u l=0.28u
X13 VB4 VB4.t12 VSS.t295 VSS.t294 nfet_03v3 ad=0.26p pd=1.52u as=0.26p ps=1.52u w=1u l=0.28u
X14 VDD.t1392 VDD.t1391 VDD.t1392 VDD.t1209 pfet_03v3 ad=1.65p pd=8.38u as=0 ps=0 w=3.75u l=0.28u
X15 OUT_N OUT1.t36 VSS.t664 VSS.t313 nfet_03v3 ad=0.78p pd=3.52u as=0.78p ps=3.52u w=3u l=0.28u
X16 OUT_N IBIAS2.t127 VDD.t276 VDD.t275 pfet_03v3 ad=1.32p pd=6.88u as=0.78p ps=3.52u w=3u l=0.28u
X17 OUT_P IBIAS2.t128 VDD.t277 VDD.t50 pfet_03v3 ad=1.32p pd=6.88u as=0.78p ps=3.52u w=3u l=0.28u
X18 OUT_N IBIAS2.t129 VDD.t18 VDD.t17 pfet_03v3 ad=0.78p pd=3.52u as=0.78p ps=3.52u w=3u l=0.28u
X19 OUT_N IBIAS2.t130 VDD.t20 VDD.t19 pfet_03v3 ad=0.78p pd=3.52u as=0.78p ps=3.52u w=3u l=0.28u
X20 a_29248_n7510.t3 OUT_N.t253 cap_mim_2f0fF c_width=21u c_length=21u
X21 OUT_N OUT1.t37 VSS.t665 VSS.t112 nfet_03v3 ad=0.78p pd=3.52u as=0.78p ps=3.52u w=3u l=0.28u
X22 VSS OUT1.t38 OUT_N.t263 VSS.t7 nfet_03v3 ad=0.78p pd=3.52u as=1.32p ps=6.88u w=3u l=0.28u
X23 OUT_P IBIAS2.t131 VDD.t22 VDD.t21 pfet_03v3 ad=0.78p pd=3.52u as=0.78p ps=3.52u w=3u l=0.28u
X24 OUT_N IBIAS2.t132 VDD.t1088 VDD.t461 pfet_03v3 ad=0.78p pd=3.52u as=0.78p ps=3.52u w=3u l=0.28u
X25 BD IBIAS.t12 VDD.t326 VDD.t114 pfet_03v3 ad=0.814p pd=3.65u as=0.814p ps=3.65u w=3.13u l=0.56u
X26 OUT_P IBIAS2.t133 VDD.t1089 VDD.t263 pfet_03v3 ad=0.78p pd=3.52u as=0.78p ps=3.52u w=3u l=0.28u
X27 BD IBIAS.t13 VDD.t521 VDD.t520 pfet_03v3 ad=0.814p pd=3.65u as=0.814p ps=3.65u w=3.13u l=0.56u
X28 OUT_N IBIAS2.t134 VDD.t1090 VDD.t551 pfet_03v3 ad=0.78p pd=3.52u as=0.78p ps=3.52u w=3u l=0.28u
X29 VCD VOUT.t2 VB1.t12 VSS.t6 nfet_03v3 ad=0.26p pd=1.52u as=0.26p ps=1.52u w=1u l=0.28u
X30 VPD VB1.t35 VDD.t404 VDD.t290 pfet_03v3 ad=1.38p pd=7.14u as=0.814p ps=3.65u w=3.13u l=0.28u
X31 VSS OUT2.t36 OUT_P.t16 VSS.t33 nfet_03v3 ad=0.78p pd=3.52u as=0.78p ps=3.52u w=3u l=0.28u
X32 VDD IBIAS2.t135 OUT_N.t236 VDD.t355 pfet_03v3 ad=0.78p pd=3.52u as=0.78p ps=3.52u w=3u l=0.28u
X33 OUT_P IBIAS2.t136 VDD.t659 VDD.t587 pfet_03v3 ad=0.78p pd=3.52u as=0.78p ps=3.52u w=3u l=0.28u
X34 VDD IBIAS2.t137 OUT_N.t235 VDD.t28 pfet_03v3 ad=0.78p pd=3.52u as=0.78p ps=3.52u w=3u l=0.28u
X35 IBIAS IBS.t9 VSS.t390 VSS.t389 nfet_03v3 ad=0.26p pd=1.52u as=0.44p ps=2.88u w=1u l=1u
X36 VSS VB4.t34 IPD.t32 VSS.t221 nfet_03v3 ad=0.749p pd=3.4u as=0.749p ps=3.4u w=2.88u l=0.28u
X37 VPD VB2.t33 OUT2.t25 VDD.t104 pfet_03v3 ad=1.38p pd=7.14u as=0.814p ps=3.65u w=3.13u l=0.28u
X38 VSS.t596 VSS.t595 VSS.t596 VSS.t407 nfet_03v3 ad=1.32p pd=6.88u as=0 ps=0 w=3u l=0.28u
X39 VDD IBIAS2.t138 OUT_P.t223 VDD.t98 pfet_03v3 ad=0.78p pd=3.52u as=0.78p ps=3.52u w=3u l=0.28u
X40 IB5 IBIAS1.t2 VDD.t791 VDD.t790 pfet_03v3 ad=1.04p pd=4.52u as=1.04p ps=4.52u w=4u l=0.56u
X41 VSS OUT1.t39 OUT_N.t264 VSS.t33 nfet_03v3 ad=0.78p pd=3.52u as=0.78p ps=3.52u w=3u l=0.28u
X42 OUT1 VB2.t34 VND.t15 VDD.t102 pfet_03v3 ad=0.814p pd=3.65u as=1.38p ps=7.14u w=3.13u l=0.28u
X43 VSS OUT2.t37 OUT_P.t17 VSS.t114 nfet_03v3 ad=0.78p pd=3.52u as=0.78p ps=3.52u w=3u l=0.28u
X44 OUT_P IBIAS2.t139 VDD.t1055 VDD.t161 pfet_03v3 ad=0.78p pd=3.52u as=0.78p ps=3.52u w=3u l=0.28u
X45 VDD IBIAS2.t140 OUT_P.t221 VDD.t577 pfet_03v3 ad=0.78p pd=3.52u as=0.78p ps=3.52u w=3u l=0.28u
X46 VDD IBIAS4.t5 IB4.t17 VDD.t1013 pfet_03v3 ad=1.32p pd=6.88u as=0.78p ps=3.52u w=3u l=0.28u
X47 VSS.t594 VSS.t593 VSS.t594 VSS.t413 nfet_03v3 ad=1.27p pd=6.64u as=0 ps=0 w=2.88u l=0.28u
X48 VSS.t592 VSS.t591 VSS.t592 VSS.t456 nfet_03v3 ad=0.88p pd=4.88u as=0 ps=0 w=2u l=1u
X49 VSS VB4.t35 IND.t41 VSS.t192 nfet_03v3 ad=0.749p pd=3.4u as=0.749p ps=3.4u w=2.88u l=0.28u
X50 VPD VB1.t36 VDD.t1133 VDD.t770 pfet_03v3 ad=0.814p pd=3.65u as=0.814p ps=3.65u w=3.13u l=0.28u
X51 VDD IBIAS3.t22 IVS.t54 VDD.t406 pfet_03v3 ad=0.78p pd=3.52u as=0.78p ps=3.52u w=3u l=0.28u
X52 OUT_P OUT2.t38 VSS.t134 VSS.t71 nfet_03v3 ad=0.78p pd=3.52u as=0.78p ps=3.52u w=3u l=0.28u
X53 BD IBIAS.t14 VDD.t523 VDD.t522 pfet_03v3 ad=0.814p pd=3.65u as=0.814p ps=3.65u w=3.13u l=0.56u
X54 VSS OUT2.t39 OUT_P.t4 VSS.t40 nfet_03v3 ad=0.78p pd=3.52u as=0.78p ps=3.52u w=3u l=0.28u
X55 BD IN_P.t0 IPD.t51 VDD.t293 pfet_03v3 ad=0.975p pd=4.27u as=0.975p ps=4.27u w=3.75u l=0.28u
X56 VSS.t590 VSS.t589 VSS.t590 VSS.t425 nfet_03v3 ad=1.32p pd=6.88u as=0 ps=0 w=3u l=0.28u
X57 VDD IBIAS2.t141 OUT_N.t234 VDD.t176 pfet_03v3 ad=0.78p pd=3.52u as=0.78p ps=3.52u w=3u l=0.28u
X58 VDD IBIAS3.t23 IVS.t53 VDD.t401 pfet_03v3 ad=0.78p pd=3.52u as=0.78p ps=3.52u w=3u l=0.28u
X59 VB3 VB3.t10 IB3.t6 VSS.t331 nfet_03v3 ad=0.44p pd=2.88u as=0.26p ps=1.52u w=1u l=0.28u
X60 VDD IBIAS2.t142 OUT_P.t220 VDD.t179 pfet_03v3 ad=0.78p pd=3.52u as=0.78p ps=3.52u w=3u l=0.28u
X61 OUT_N IBIAS2.t143 VDD.t182 VDD.t86 pfet_03v3 ad=0.78p pd=3.52u as=0.78p ps=3.52u w=3u l=0.28u
X62 VDD.t1390 VDD.t1389 VDD.t1390 VDD.t1174 pfet_03v3 ad=1.38p pd=7.14u as=0 ps=0 w=3.13u l=0.56u
X63 IPD VB3.t17 OUT2.t17 VSS.t388 nfet_03v3 ad=0.749p pd=3.4u as=1.27p ps=6.64u w=2.88u l=0.28u
X64 OUT1 VB3.t18 IND.t58 VSS.t392 nfet_03v3 ad=1.27p pd=6.64u as=1.27p ps=6.64u w=2.88u l=0.28u
X65 VDD IBIAS2.t144 OUT_N.t232 VDD.t241 pfet_03v3 ad=0.78p pd=3.52u as=0.78p ps=3.52u w=3u l=0.28u
X66 VDD.t1388 VDD.t1387 VDD.t1388 VDD.t1191 pfet_03v3 ad=1.32p pd=6.88u as=0 ps=0 w=3u l=0.28u
X67 VDD IBIAS3.t24 IVS.t52 VDD.t412 pfet_03v3 ad=0.78p pd=3.52u as=0.78p ps=3.52u w=3u l=0.28u
X68 VB1 VOUT.t3 VCD.t11 VSS.t353 nfet_03v3 ad=0.44p pd=2.88u as=0.26p ps=1.52u w=1u l=0.28u
X69 OUT_N OUT1.t40 VSS.t113 VSS.t112 nfet_03v3 ad=0.78p pd=3.52u as=0.78p ps=3.52u w=3u l=0.28u
X70 VDD IBIAS2.t145 OUT_P.t219 VDD.t317 pfet_03v3 ad=0.78p pd=3.52u as=1.32p ps=6.88u w=3u l=0.28u
X71 VDD IBIAS2.t110 IBIAS2.t111 VDD.t7 pfet_03v3 ad=0.78p pd=3.52u as=0.78p ps=3.52u w=3u l=0.28u
X72 VDD.t1386 VDD.t1385 VDD.t1386 VDD.t1250 pfet_03v3 ad=1.32p pd=6.88u as=0 ps=0 w=3u l=0.28u
X73 VBM VCM.t1 VCD.t41 VSS.t3 nfet_03v3 ad=0.26p pd=1.52u as=0.26p ps=1.52u w=1u l=0.28u
X74 VSS VB4.t36 IPD.t31 VSS.t221 nfet_03v3 ad=0.749p pd=3.4u as=0.749p ps=3.4u w=2.88u l=0.28u
X75 OUT_N IBIAS2.t146 VDD.t561 VDD.t433 pfet_03v3 ad=1.32p pd=6.88u as=0.78p ps=3.52u w=3u l=0.28u
X76 VSS VBIASN.t5 VCD.t53 VSS.t659 nfet_03v3 ad=0.26p pd=1.52u as=0.26p ps=1.52u w=1u l=0.56u
X77 VCD VCM.t2 VBM.t24 VSS.t5 nfet_03v3 ad=0.26p pd=1.52u as=0.26p ps=1.52u w=1u l=0.28u
X78 OUT_N IBIAS2.t147 VDD.t260 VDD.t252 pfet_03v3 ad=1.32p pd=6.88u as=0.78p ps=3.52u w=3u l=0.28u
X79 IPD IN_P.t1 BD.t26 VDD.t108 pfet_03v3 ad=0.975p pd=4.27u as=0.975p ps=4.27u w=3.75u l=0.28u
X80 IND VB4.t37 VSS.t287 VSS.t164 nfet_03v3 ad=1.27p pd=6.64u as=0.749p ps=3.4u w=2.88u l=0.28u
X81 VDD IBIAS2.t108 IBIAS2.t109 VDD.t1107 pfet_03v3 ad=0.78p pd=3.52u as=0.78p ps=3.52u w=3u l=0.28u
X82 OUT_P IBIAS2.t148 VDD.t262 VDD.t261 pfet_03v3 ad=0.78p pd=3.52u as=0.78p ps=3.52u w=3u l=0.28u
X83 OUT_P IBIAS2.t149 VDD.t264 VDD.t263 pfet_03v3 ad=0.78p pd=3.52u as=0.78p ps=3.52u w=3u l=0.28u
X84 VDD IBIAS2.t150 OUT_N.t229 VDD.t457 pfet_03v3 ad=0.78p pd=3.52u as=0.78p ps=3.52u w=3u l=0.28u
X85 VCD VBIASN.t6 VSS.t663 VSS.t662 nfet_03v3 ad=0.26p pd=1.52u as=0.26p ps=1.52u w=1u l=0.56u
X86 VDD IBIAS.t15 BD.t4 VDD.t111 pfet_03v3 ad=0.814p pd=3.65u as=0.814p ps=3.65u w=3.13u l=0.56u
X87 OUT_P IBIAS2.t151 VDD.t682 VDD.t163 pfet_03v3 ad=0.78p pd=3.52u as=0.78p ps=3.52u w=3u l=0.28u
X88 VDD IBIAS2.t152 OUT_N.t228 VDD.t46 pfet_03v3 ad=0.78p pd=3.52u as=0.78p ps=3.52u w=3u l=0.28u
X89 VSS VBIASN.t7 IBIAS4.t0 VSS.t46 nfet_03v3 ad=0.52p pd=2.52u as=0.88p ps=4.88u w=2u l=1u
X90 VSS IVS.t74 IVS.t75 VSS.t620 nfet_03v3 ad=0.52p pd=2.52u as=0.52p ps=2.52u w=2u l=1u
X91 VSS.t588 VSS.t587 VSS.t588 VSS.t404 nfet_03v3 ad=1.27p pd=6.64u as=0 ps=0 w=2.88u l=0.28u
X92 VSS VB4.t38 IND.t40 VSS.t192 nfet_03v3 ad=0.749p pd=3.4u as=0.749p ps=3.4u w=2.88u l=0.28u
X93 IPD VB4.t39 VSS.t284 VSS.t209 nfet_03v3 ad=0.749p pd=3.4u as=0.749p ps=3.4u w=2.88u l=0.28u
X94 VDD.t1384 VDD.t1383 VDD.t1384 VDD.t1284 pfet_03v3 ad=1.32p pd=6.88u as=0 ps=0 w=3u l=0.28u
X95 VDD IBIAS2.t153 OUT_N.t227 VDD.t577 pfet_03v3 ad=0.78p pd=3.52u as=0.78p ps=3.52u w=3u l=0.28u
X96 a_25078_n6312# a_24798_n7414# VDD.t580 ppolyf_u r_width=1u r_length=5u
X97 IND IN_N.t1 BD.t57 VDD.t353 pfet_03v3 ad=0.975p pd=4.27u as=0.975p ps=4.27u w=3.75u l=0.28u
X98 VND VB2.t35 OUT1.t26 VDD.t309 pfet_03v3 ad=1.38p pd=7.14u as=0.814p ps=3.65u w=3.13u l=0.28u
X99 VSS OUT1.t41 OUT_N.t31 VSS.t114 nfet_03v3 ad=0.78p pd=3.52u as=0.78p ps=3.52u w=3u l=0.28u
X100 VCD VOUT.t4 VB1.t24 VSS.t141 nfet_03v3 ad=0.26p pd=1.52u as=0.44p ps=2.88u w=1u l=0.28u
X101 OUT_N IBIAS2.t154 VDD.t1025 VDD.t86 pfet_03v3 ad=0.78p pd=3.52u as=0.78p ps=3.52u w=3u l=0.28u
X102 VDD IBIAS2.t155 OUT_N.t225 VDD.t88 pfet_03v3 ad=0.78p pd=3.52u as=0.78p ps=3.52u w=3u l=0.28u
X103 OUT_N OUT1.t42 VSS.t117 VSS.t89 nfet_03v3 ad=0.78p pd=3.52u as=0.78p ps=3.52u w=3u l=0.28u
X104 VSS OUT1.t43 OUT_N.t33 VSS.t93 nfet_03v3 ad=0.78p pd=3.52u as=1.32p ps=6.88u w=3u l=0.28u
X105 VDD IBIAS2.t156 OUT_N.t224 VDD.t127 pfet_03v3 ad=0.78p pd=3.52u as=0.78p ps=3.52u w=3u l=0.28u
X106 IVS IBIAS3.t25 VDD.t170 VDD.t109 pfet_03v3 ad=0.78p pd=3.52u as=0.78p ps=3.52u w=3u l=0.28u
X107 IND VB4.t40 VSS.t283 VSS.t197 nfet_03v3 ad=0.749p pd=3.4u as=0.749p ps=3.4u w=2.88u l=0.28u
X108 VDD.t1382 VDD.t1381 VDD.t1382 VDD.t1228 pfet_03v3 ad=1.38p pd=7.14u as=0 ps=0 w=3.13u l=0.28u
X109 VDD.t1380 VDD.t1379 VDD.t1380 VDD.t1182 pfet_03v3 ad=1.32p pd=6.88u as=0 ps=0 w=3u l=0.28u
X110 VDD VB1.t37 VPD.t13 VDD.t282 pfet_03v3 ad=0.814p pd=3.65u as=1.38p ps=7.14u w=3.13u l=0.28u
X111 VSS OUT1.t44 OUT_N.t34 VSS.t7 nfet_03v3 ad=0.78p pd=3.52u as=1.32p ps=6.88u w=3u l=0.28u
X112 VDD IBIAS.t16 BD.t5 VDD.t267 pfet_03v3 ad=0.814p pd=3.65u as=0.814p ps=3.65u w=3.13u l=0.56u
X113 VSS.t586 VSS.t585 VSS.t586 VSS.t433 nfet_03v3 ad=1.27p pd=6.64u as=0 ps=0 w=2.88u l=0.28u
X114 VDD IBIAS2.t106 IBIAS2.t107 VDD.t199 pfet_03v3 ad=0.78p pd=3.52u as=0.78p ps=3.52u w=3u l=0.28u
X115 a_29248_n5498.t1 OUT_P.t270 cap_mim_2f0fF c_width=21u c_length=21u
X116 OUT_N IBIAS2.t157 VDD.t962 VDD.t465 pfet_03v3 ad=0.78p pd=3.52u as=0.78p ps=3.52u w=3u l=0.28u
X117 VCD VOUT.t5 VB1.t30 VSS.t599 nfet_03v3 ad=0.26p pd=1.52u as=0.26p ps=1.52u w=1u l=0.28u
X118 VSS.t584 VSS.t583 VSS.t584 VSS.t430 nfet_03v3 ad=1.32p pd=6.88u as=0 ps=0 w=3u l=0.28u
X119 VDD.t1378 VDD.t1376 VDD.t1378 VDD.t1377 pfet_03v3 ad=1.76p pd=8.88u as=0 ps=0 w=4u l=0.28u
X120 VB4 VB4.t10 VSS.t282 VSS.t281 nfet_03v3 ad=0.26p pd=1.52u as=0.26p ps=1.52u w=1u l=0.28u
X121 VB1 VOUT.t6 VCD.t7 VSS.t142 nfet_03v3 ad=0.26p pd=1.52u as=0.26p ps=1.52u w=1u l=0.28u
X122 VDD.t1375 VDD.t1374 VDD.t1375 VDD.t1194 pfet_03v3 ad=1.65p pd=8.38u as=0 ps=0 w=3.75u l=0.28u
X123 VDD IBIAS2.t158 OUT_P.t215 VDD.t675 pfet_03v3 ad=0.78p pd=3.52u as=0.78p ps=3.52u w=3u l=0.28u
X124 IPD VB4.t42 VSS.t280 VSS.t209 nfet_03v3 ad=0.749p pd=3.4u as=0.749p ps=3.4u w=2.88u l=0.28u
X125 VSS OUT2.t40 OUT_P.t5 VSS.t24 nfet_03v3 ad=0.78p pd=3.52u as=0.78p ps=3.52u w=3u l=0.28u
X126 VDD.t1373 VDD.t1372 VDD.t1373 VDD.t1291 pfet_03v3 ad=1.32p pd=6.88u as=0 ps=0 w=3u l=0.28u
X127 VDD.t1371 VDD.t1370 VDD.t1371 VDD.t1169 pfet_03v3 ad=1.38p pd=7.14u as=0 ps=0 w=3.13u l=0.28u
X128 VDD IBIAS2.t159 OUT_N.t222 VDD.t0 pfet_03v3 ad=0.78p pd=3.52u as=0.78p ps=3.52u w=3u l=0.28u
X129 OUT_P IBIAS2.t160 VDD.t1412 VDD.t52 pfet_03v3 ad=0.78p pd=3.52u as=0.78p ps=3.52u w=3u l=0.28u
X130 VDD IBIAS2.t161 OUT_N.t221 VDD.t457 pfet_03v3 ad=0.78p pd=3.52u as=0.78p ps=3.52u w=3u l=0.28u
X131 OUT_N IBIAS2.t162 VDD.t733 VDD.t465 pfet_03v3 ad=0.78p pd=3.52u as=0.78p ps=3.52u w=3u l=0.28u
X132 VDD IBIAS2.t163 OUT_N.t219 VDD.t67 pfet_03v3 ad=0.78p pd=3.52u as=0.78p ps=3.52u w=3u l=0.28u
X133 VDD.t1369 VDD.t1368 VDD.t1369 VDD.t1279 pfet_03v3 ad=1.32p pd=6.88u as=0 ps=0 w=3u l=0.28u
X134 VB3 VB3.t12 IB3.t5 VSS.t332 nfet_03v3 ad=0.26p pd=1.52u as=0.26p ps=1.52u w=1u l=0.28u
X135 VSS.t582 VSS.t581 VSS.t582 VSS.t407 nfet_03v3 ad=1.32p pd=6.88u as=0 ps=0 w=3u l=0.28u
X136 OUT_N IBIAS2.t164 VDD.t736 VDD.t227 pfet_03v3 ad=0.78p pd=3.52u as=0.78p ps=3.52u w=3u l=0.28u
X137 VDD IBIAS4.t6 IB4.t16 VDD.t1013 pfet_03v3 ad=1.32p pd=6.88u as=0.78p ps=3.52u w=3u l=0.28u
X138 VSS OUT1.t45 OUT_N.t35 VSS.t13 nfet_03v3 ad=0.78p pd=3.52u as=1.32p ps=6.88u w=3u l=0.28u
X139 VDD IBIAS2.t165 OUT_N.t217 VDD.t43 pfet_03v3 ad=0.78p pd=3.52u as=0.78p ps=3.52u w=3u l=0.28u
X140 BD IBIAS.t17 VDD.t1102 VDD.t520 pfet_03v3 ad=0.814p pd=3.65u as=0.814p ps=3.65u w=3.13u l=0.56u
X141 IND VB4.t43 VSS.t279 VSS.t162 nfet_03v3 ad=0.749p pd=3.4u as=0.749p ps=3.4u w=2.88u l=0.28u
X142 OUT_P IBIAS2.t166 VDD.t967 VDD.t19 pfet_03v3 ad=0.78p pd=3.52u as=0.78p ps=3.52u w=3u l=0.28u
X143 VBM VCM.t3 VCD.t39 VSS.t3 nfet_03v3 ad=0.26p pd=1.52u as=0.26p ps=1.52u w=1u l=0.28u
X144 VB1 VOUT.t7 VCD.t55 VSS.t140 nfet_03v3 ad=0.26p pd=1.52u as=0.26p ps=1.52u w=1u l=0.28u
X145 IND VB4.t44 VSS.t278 VSS.t197 nfet_03v3 ad=0.749p pd=3.4u as=0.749p ps=3.4u w=2.88u l=0.28u
X146 OUT_P IBIAS2.t167 VDD.t968 VDD.t81 pfet_03v3 ad=0.78p pd=3.52u as=0.78p ps=3.52u w=3u l=0.28u
X147 VDD IBIAS4.t7 IB4.t15 VDD.t1013 pfet_03v3 ad=1.32p pd=6.88u as=0.78p ps=3.52u w=3u l=0.28u
X148 IVS IVS.t72 VSS.t637 VSS.t636 nfet_03v3 ad=0.52p pd=2.52u as=0.52p ps=2.52u w=2u l=1u
X149 VDD IBIAS2.t168 OUT_P.t211 VDD.t28 pfet_03v3 ad=0.78p pd=3.52u as=0.78p ps=3.52u w=3u l=0.28u
X150 VSS IVS.t77 IBIAS2.t112 VSS.t346 nfet_03v3 ad=0.52p pd=2.52u as=0.52p ps=2.52u w=2u l=1u
X151 BD IN_P.t2 IPD.t39 VDD.t107 pfet_03v3 ad=0.975p pd=4.27u as=0.975p ps=4.27u w=3.75u l=0.28u
X152 OUT_N OUT1.t46 VSS.t92 VSS.t91 nfet_03v3 ad=0.78p pd=3.52u as=0.78p ps=3.52u w=3u l=0.28u
X153 OUT_P IBIAS2.t169 VDD.t31 VDD.t17 pfet_03v3 ad=0.78p pd=3.52u as=0.78p ps=3.52u w=3u l=0.28u
X154 VDD IBIAS2.t170 OUT_P.t209 VDD.t32 pfet_03v3 ad=0.78p pd=3.52u as=0.78p ps=3.52u w=3u l=0.28u
X155 VND VB2.t36 OUT1.t30 VDD.t104 pfet_03v3 ad=1.38p pd=7.14u as=0.814p ps=3.65u w=3.13u l=0.28u
X156 OUT_N IBIAS2.t171 VDD.t566 VDD.t437 pfet_03v3 ad=0.78p pd=3.52u as=0.78p ps=3.52u w=3u l=0.28u
X157 VDD IBIAS3.t26 IVS.t50 VDD.t401 pfet_03v3 ad=0.78p pd=3.52u as=0.78p ps=3.52u w=3u l=0.28u
X158 OUT_N IBIAS2.t172 VDD.t568 VDD.t567 pfet_03v3 ad=0.78p pd=3.52u as=0.78p ps=3.52u w=3u l=0.28u
X159 VSS.t580 VSS.t579 VSS.t580 VSS.t477 nfet_03v3 ad=0.44p pd=2.88u as=0 ps=0 w=1u l=0.28u
X160 BD IN_P.t3 IPD.t40 VDD.t530 pfet_03v3 ad=0.975p pd=4.27u as=0.975p ps=4.27u w=3.75u l=0.28u
X161 OUT_N IBIAS2.t173 VDD.t569 VDD.t148 pfet_03v3 ad=0.78p pd=3.52u as=0.78p ps=3.52u w=3u l=0.28u
X162 VDD IBIAS2.t174 OUT_P.t208 VDD.t295 pfet_03v3 ad=0.78p pd=3.52u as=0.78p ps=3.52u w=3u l=0.28u
X163 OUT_N IBIAS2.t175 VDD.t455 VDD.t454 pfet_03v3 ad=0.78p pd=3.52u as=0.78p ps=3.52u w=3u l=0.28u
X164 OUT2.t24 a_29248_n5498.t1 VDD.t697 ppolyf_u r_width=1u r_length=6.2u
X165 IBIAS3 IBIAS3.t19 VDD.t575 VDD.t574 pfet_03v3 ad=0.78p pd=3.52u as=0.78p ps=3.52u w=3u l=0.28u
X166 VSS.t578 VSS.t576 VSS.t578 VSS.t577 nfet_03v3 ad=0.26p pd=1.52u as=0 ps=0 w=1u l=0.28u
X167 OUT_N IBIAS2.t176 VDD.t456 VDD.t435 pfet_03v3 ad=0.78p pd=3.52u as=0.78p ps=3.52u w=3u l=0.28u
X168 OUT2 VB2.t37 VPD.t31 VDD.t102 pfet_03v3 ad=0.814p pd=3.65u as=1.38p ps=7.14u w=3.13u l=0.28u
X169 VDD IBIAS3.t28 IVS.t49 VDD.t401 pfet_03v3 ad=0.78p pd=3.52u as=0.78p ps=3.52u w=3u l=0.28u
X170 OUT_P IBIAS2.t177 VDD.t482 VDD.t433 pfet_03v3 ad=1.32p pd=6.88u as=0.78p ps=3.52u w=3u l=0.28u
X171 VND VB1.t38 VDD.t1406 VDD.t770 pfet_03v3 ad=0.814p pd=3.65u as=0.814p ps=3.65u w=3.13u l=0.28u
X172 VDD IBIAS2.t104 IBIAS2.t105 VDD.t199 pfet_03v3 ad=0.78p pd=3.52u as=0.78p ps=3.52u w=3u l=0.28u
X173 IBIAS2 IBIAS2.t102 VDD.t518 VDD.t336 pfet_03v3 ad=0.78p pd=3.52u as=0.78p ps=3.52u w=3u l=0.28u
X174 VDD IBIAS2.t179 OUT_N.t211 VDD.t483 pfet_03v3 ad=0.78p pd=3.52u as=1.32p ps=6.88u w=3u l=0.28u
X175 VSS.t575 VSS.t574 VSS.t575 VSS.t416 nfet_03v3 ad=1.32p pd=6.88u as=0 ps=0 w=3u l=0.28u
X176 VSS.t573 VSS.t572 VSS.t573 VSS.t493 nfet_03v3 ad=0.44p pd=2.88u as=0 ps=0 w=1u l=0.28u
X177 IND VB4.t45 VSS.t277 VSS.t164 nfet_03v3 ad=1.27p pd=6.64u as=0.749p ps=3.4u w=2.88u l=0.28u
X178 OUT_N IBIAS2.t180 VDD.t486 VDD.t275 pfet_03v3 ad=1.32p pd=6.88u as=0.78p ps=3.52u w=3u l=0.28u
X179 VSS.t571 VSS.t570 VSS.t571 VSS.t413 nfet_03v3 ad=1.27p pd=6.64u as=0 ps=0 w=2.88u l=0.28u
X180 OUT_P OUT2.t41 VSS.t80 VSS.t79 nfet_03v3 ad=0.78p pd=3.52u as=0.78p ps=3.52u w=3u l=0.28u
X181 VSS OUT1.t47 OUT_N.t19 VSS.t93 nfet_03v3 ad=0.78p pd=3.52u as=1.32p ps=6.88u w=3u l=0.28u
X182 OUT_P IBIAS2.t181 VDD.t118 VDD.t117 pfet_03v3 ad=0.78p pd=3.52u as=0.78p ps=3.52u w=3u l=0.28u
X183 IVS IBIAS3.t29 VDD.t1091 VDD.t364 pfet_03v3 ad=0.78p pd=3.52u as=0.78p ps=3.52u w=3u l=0.28u
X184 IB3 VB3.t4 VB3.t5 VSS.t399 nfet_03v3 ad=0.26p pd=1.52u as=0.26p ps=1.52u w=1u l=0.28u
X185 OUT_N OUT1.t48 VSS.t96 VSS.t79 nfet_03v3 ad=0.78p pd=3.52u as=0.78p ps=3.52u w=3u l=0.28u
X186 VDD IBIAS2.t182 OUT_P.t205 VDD.t119 pfet_03v3 ad=0.78p pd=3.52u as=0.78p ps=3.52u w=3u l=0.28u
X187 VSS.t569 VSS.t568 VSS.t569 VSS.t410 nfet_03v3 ad=1.27p pd=6.64u as=0 ps=0 w=2.88u l=0.28u
X188 VSS VB4.t46 IPD.t28 VSS.t192 nfet_03v3 ad=0.749p pd=3.4u as=0.749p ps=3.4u w=2.88u l=0.28u
X189 VB1 VB1.t4 VDD.t789 VDD.t788 pfet_03v3 ad=1.04p pd=4.52u as=1.04p ps=4.52u w=4u l=0.28u
X190 IPD VB3.t20 OUT2.t18 VSS.t1 nfet_03v3 ad=0.749p pd=3.4u as=1.27p ps=6.64u w=2.88u l=0.28u
X191 OUT2 VB3.t21 IPD.t48 VSS.t392 nfet_03v3 ad=1.27p pd=6.64u as=1.27p ps=6.64u w=2.88u l=0.28u
X192 VDD IBIAS2.t183 OUT_N.t209 VDD.t122 pfet_03v3 ad=0.78p pd=3.52u as=0.78p ps=3.52u w=3u l=0.28u
X193 VCD VOUT.t8 VB1.t17 VSS.t599 nfet_03v3 ad=0.26p pd=1.52u as=0.26p ps=1.52u w=1u l=0.28u
X194 IND VB3.t22 OUT1.t15 VSS.t1 nfet_03v3 ad=0.749p pd=3.4u as=1.27p ps=6.64u w=2.88u l=0.28u
X195 VDD IBIAS2.t184 OUT_P.t204 VDD.t60 pfet_03v3 ad=0.78p pd=3.52u as=1.32p ps=6.88u w=3u l=0.28u
X196 VCD VOUT.t9 VB1.t6 VSS.t5 nfet_03v3 ad=0.26p pd=1.52u as=0.26p ps=1.52u w=1u l=0.28u
X197 OUT1 VB2.t38 VND.t12 VDD.t103 pfet_03v3 ad=0.814p pd=3.65u as=1.38p ps=7.14u w=3.13u l=0.28u
X198 OUT_P IBIAS2.t185 VDD.t64 VDD.t63 pfet_03v3 ad=0.78p pd=3.52u as=0.78p ps=3.52u w=3u l=0.28u
X199 VB4 VB4.t8 VSS.t274 VSS.t273 nfet_03v3 ad=0.26p pd=1.52u as=0.26p ps=1.52u w=1u l=0.28u
X200 VDD.t1367 VDD.t1366 VDD.t1367 VDD.t1179 pfet_03v3 ad=1.65p pd=8.38u as=0 ps=0 w=3.75u l=0.28u
X201 VSS.t567 VSS.t566 VSS.t567 VSS.t404 nfet_03v3 ad=1.27p pd=6.64u as=0 ps=0 w=2.88u l=0.28u
X202 VSS OUT2.t42 OUT_P.t7 VSS.t10 nfet_03v3 ad=0.78p pd=3.52u as=0.78p ps=3.52u w=3u l=0.28u
X203 VDD IBIAS2.t100 IBIAS2.t101 VDD.t515 pfet_03v3 ad=0.78p pd=3.52u as=0.78p ps=3.52u w=3u l=0.28u
X204 VSS.t565 VSS.t564 VSS.t565 VSS.t413 nfet_03v3 ad=1.27p pd=6.64u as=0 ps=0 w=2.88u l=0.28u
X205 VSS VB4.t48 IPD.t27 VSS.t159 nfet_03v3 ad=0.749p pd=3.4u as=1.27p ps=6.64u w=2.88u l=0.28u
X206 IND VB3.t23 OUT1.t16 VSS.t385 nfet_03v3 ad=0.749p pd=3.4u as=1.27p ps=6.64u w=2.88u l=0.28u
X207 IVS IBIAS3.t30 VDD.t360 VDD.t109 pfet_03v3 ad=0.78p pd=3.52u as=0.78p ps=3.52u w=3u l=0.28u
X208 a_24798_n4340# a_23622_n5442# VDD.t766 ppolyf_u r_width=1u r_length=5u
X209 BD IBIAS.t18 VDD.t1103 VDD.t522 pfet_03v3 ad=0.814p pd=3.65u as=0.814p ps=3.65u w=3.13u l=0.56u
X210 VSS OUT2.t43 OUT_P.t31 VSS.t24 nfet_03v3 ad=0.78p pd=3.52u as=0.78p ps=3.52u w=3u l=0.28u
X211 OUT_P IBIAS2.t186 VDD.t65 VDD.t5 pfet_03v3 ad=0.78p pd=3.52u as=0.78p ps=3.52u w=3u l=0.28u
X212 VDD.t1365 VDD.t1364 VDD.t1365 VDD.t1174 pfet_03v3 ad=1.38p pd=7.14u as=0 ps=0 w=3.13u l=0.56u
X213 VDD IBIAS2.t187 OUT_P.t201 VDD.t88 pfet_03v3 ad=0.78p pd=3.52u as=0.78p ps=3.52u w=3u l=0.28u
X214 IBIAS2 IVS.t78 VSS.t642 VSS.t342 nfet_03v3 ad=0.52p pd=2.52u as=0.52p ps=2.52u w=2u l=1u
X215 VSS.t563 VSS.t562 VSS.t563 VSS.t416 nfet_03v3 ad=1.32p pd=6.88u as=0 ps=0 w=3u l=0.28u
X216 OUT_N OUT1.t49 VSS.t97 VSS.t38 nfet_03v3 ad=1.32p pd=6.88u as=0.78p ps=3.52u w=3u l=0.28u
X217 OUT_P IBIAS2.t188 VDD.t612 VDD.t117 pfet_03v3 ad=0.78p pd=3.52u as=0.78p ps=3.52u w=3u l=0.28u
X218 IVS IBIAS3.t31 VDD.t110 VDD.t109 pfet_03v3 ad=0.78p pd=3.52u as=0.78p ps=3.52u w=3u l=0.28u
X219 VDD IBIAS2.t189 OUT_P.t199 VDD.t469 pfet_03v3 ad=0.78p pd=3.52u as=0.78p ps=3.52u w=3u l=0.28u
X220 VSS.t561 VSS.t560 VSS.t561 VSS.t419 nfet_03v3 ad=1.32p pd=6.88u as=0 ps=0 w=3u l=0.28u
X221 VPD VB2.t39 OUT2.t6 VDD.t309 pfet_03v3 ad=1.38p pd=7.14u as=0.814p ps=3.65u w=3.13u l=0.28u
X222 VSS OUT1.t50 OUT_N.t22 VSS.t98 nfet_03v3 ad=0.78p pd=3.52u as=0.78p ps=3.52u w=3u l=0.28u
X223 VSS OUT2.t44 OUT_P.t32 VSS.t28 nfet_03v3 ad=0.78p pd=3.52u as=0.78p ps=3.52u w=3u l=0.28u
X224 VSS VB4.t49 IPD.t26 VSS.t221 nfet_03v3 ad=0.749p pd=3.4u as=0.749p ps=3.4u w=2.88u l=0.28u
X225 OUT_P IBIAS2.t190 VDD.t741 VDD.t72 pfet_03v3 ad=0.78p pd=3.52u as=0.78p ps=3.52u w=3u l=0.28u
X226 VDD IBIAS1.t3 VBIASN.t0 VDD.t746 pfet_03v3 ad=1.04p pd=4.52u as=1.76p ps=8.88u w=4u l=0.56u
X227 VSS OUT2.t45 OUT_P.t33 VSS.t98 nfet_03v3 ad=0.78p pd=3.52u as=0.78p ps=3.52u w=3u l=0.28u
X228 VDD.t1363 VDD.t1362 VDD.t1363 VDD.t1145 pfet_03v3 ad=1.32p pd=6.88u as=0 ps=0 w=3u l=0.28u
X229 VDD.t1361 VDD.t1360 VDD.t1361 VDD.t1279 pfet_03v3 ad=1.32p pd=6.88u as=0 ps=0 w=3u l=0.28u
X230 IB2 VB2.t30 VB2.t31 VDD.t792 pfet_03v3 ad=0.13p pd=1.02u as=0.13p ps=1.02u w=0.5u l=0.28u
X231 VSS OUT2.t46 OUT_P.t34 VSS.t16 nfet_03v3 ad=0.78p pd=3.52u as=0.78p ps=3.52u w=3u l=0.28u
X232 VDD IBIAS2.t191 OUT_P.t197 VDD.t38 pfet_03v3 ad=0.78p pd=3.52u as=1.32p ps=6.88u w=3u l=0.28u
X233 VSS.t559 VSS.t558 VSS.t559 VSS.t404 nfet_03v3 ad=1.27p pd=6.64u as=0 ps=0 w=2.88u l=0.28u
X234 VSS VB4.t50 IND.t39 VSS.t192 nfet_03v3 ad=0.749p pd=3.4u as=0.749p ps=3.4u w=2.88u l=0.28u
X235 VDD.t1359 VDD.t1358 VDD.t1359 VDD.t1279 pfet_03v3 ad=1.32p pd=6.88u as=0 ps=0 w=3u l=0.28u
X236 VSS VB4.t26 VB4.t27 VSS.t264 nfet_03v3 ad=0.26p pd=1.52u as=0.26p ps=1.52u w=1u l=0.28u
X237 VDD IBIAS2.t98 IBIAS2.t99 VDD.t173 pfet_03v3 ad=0.78p pd=3.52u as=0.78p ps=3.52u w=3u l=0.28u
X238 VDD.t1357 VDD.t1356 VDD.t1357 VDD.t1270 pfet_03v3 ad=1.32p pd=6.88u as=0 ps=0 w=3u l=0.28u
X239 VDD IBIAS2.t192 OUT_N.t208 VDD.t179 pfet_03v3 ad=0.78p pd=3.52u as=0.78p ps=3.52u w=3u l=0.28u
X240 VPD VB2.t40 OUT2.t7 VDD.t354 pfet_03v3 ad=1.38p pd=7.14u as=0.814p ps=3.65u w=3.13u l=0.28u
X241 VDD IBIAS2.t193 OUT_P.t196 VDD.t376 pfet_03v3 ad=0.78p pd=3.52u as=0.78p ps=3.52u w=3u l=0.28u
X242 OUT_P OUT2.t47 VSS.t333 VSS.t91 nfet_03v3 ad=0.78p pd=3.52u as=0.78p ps=3.52u w=3u l=0.28u
X243 OUT_N IBIAS2.t194 VDD.t631 VDD.t461 pfet_03v3 ad=0.78p pd=3.52u as=0.78p ps=3.52u w=3u l=0.28u
X244 VDD.t1355 VDD.t1354 VDD.t1355 VDD.t1206 pfet_03v3 ad=0.13p pd=1.02u as=0 ps=0 w=0.5u l=0.28u
X245 VDD IBIAS2.t195 OUT_N.t206 VDD.t60 pfet_03v3 ad=0.78p pd=3.52u as=1.32p ps=6.88u w=3u l=0.28u
X246 OUT1.t20 a_29248_n7510.t1 VDD.t697 ppolyf_u r_width=1u r_length=6.2u
X247 IPD IN_P.t4 BD.t20 VDD.t294 pfet_03v3 ad=0.975p pd=4.27u as=0.975p ps=4.27u w=3.75u l=0.28u
X248 VDD IBIAS2.t196 OUT_P.t195 VDD.t0 pfet_03v3 ad=0.78p pd=3.52u as=0.78p ps=3.52u w=3u l=0.28u
X249 OUT_P IBIAS2.t197 VDD.t822 VDD.t780 pfet_03v3 ad=0.78p pd=3.52u as=0.78p ps=3.52u w=3u l=0.28u
X250 VSS VB4.t51 IND.t38 VSS.t159 nfet_03v3 ad=0.749p pd=3.4u as=1.27p ps=6.64u w=2.88u l=0.28u
X251 IBIAS3 IBIAS3.t17 VDD.t831 VDD.t574 pfet_03v3 ad=0.78p pd=3.52u as=0.78p ps=3.52u w=3u l=0.28u
X252 VDD IBIAS3.t33 IVS.t45 VDD.t186 pfet_03v3 ad=0.78p pd=3.52u as=0.78p ps=3.52u w=3u l=0.28u
X253 OUT2 VB3.t24 IPD.t42 VSS.t391 nfet_03v3 ad=1.27p pd=6.64u as=0.749p ps=3.4u w=2.88u l=0.28u
X254 VDD IBIAS2.t198 OUT_P.t193 VDD.t221 pfet_03v3 ad=0.78p pd=3.52u as=0.78p ps=3.52u w=3u l=0.28u
X255 VSS.t557 VSS.t556 VSS.t557 VSS.t419 nfet_03v3 ad=1.32p pd=6.88u as=0 ps=0 w=3u l=0.28u
X256 VCD VOUT.t10 VB1.t9 VSS.t5 nfet_03v3 ad=0.26p pd=1.52u as=0.26p ps=1.52u w=1u l=0.28u
X257 IBS IBIAS1.t4 VDD.t696 VDD.t695 pfet_03v3 ad=1.04p pd=4.52u as=1.04p ps=4.52u w=4u l=0.56u
X258 IBIAS3 IBIAS3.t15 VDD.t1132 VDD.t574 pfet_03v3 ad=0.78p pd=3.52u as=0.78p ps=3.52u w=3u l=0.28u
X259 VDD.t1353 VDD.t1352 VDD.t1353 VDD.t1145 pfet_03v3 ad=1.32p pd=6.88u as=0 ps=0 w=3u l=0.28u
X260 VDD IBIAS2.t199 OUT_N.t205 VDD.t57 pfet_03v3 ad=0.78p pd=3.52u as=0.78p ps=3.52u w=3u l=0.28u
X261 VDD IBIAS2.t200 OUT_N.t204 VDD.t469 pfet_03v3 ad=0.78p pd=3.52u as=0.78p ps=3.52u w=3u l=0.28u
X262 VB4 IB5.t10 IB5.t11 VSS.t616 nfet_03v3 ad=0.26p pd=1.52u as=0.26p ps=1.52u w=1u l=0.28u
X263 IND IN_N.t2 BD.t56 VDD.t37 pfet_03v3 ad=0.975p pd=4.27u as=0.975p ps=4.27u w=3.75u l=0.28u
X264 VDD IBIAS2.t201 OUT_P.t192 VDD.t224 pfet_03v3 ad=0.78p pd=3.52u as=0.78p ps=3.52u w=3u l=0.28u
X265 VDD IBIAS2.t202 OUT_N.t203 VDD.t54 pfet_03v3 ad=0.78p pd=3.52u as=0.78p ps=3.52u w=3u l=0.28u
X266 VDD IBIAS2.t203 OUT_P.t191 VDD.t28 pfet_03v3 ad=0.78p pd=3.52u as=0.78p ps=3.52u w=3u l=0.28u
X267 IVS IBIAS3.t35 VDD.t365 VDD.t364 pfet_03v3 ad=0.78p pd=3.52u as=0.78p ps=3.52u w=3u l=0.28u
X268 VSS IVS.t70 IVS.t71 VSS.t624 nfet_03v3 ad=0.52p pd=2.52u as=0.52p ps=2.52u w=2u l=1u
X269 VDD IBIAS.t19 BD.t7 VDD.t137 pfet_03v3 ad=0.814p pd=3.65u as=0.814p ps=3.65u w=3.13u l=0.56u
X270 IPD VB4.t52 VSS.t261 VSS.t209 nfet_03v3 ad=0.749p pd=3.4u as=0.749p ps=3.4u w=2.88u l=0.28u
X271 IND VB4.t53 VSS.t260 VSS.t209 nfet_03v3 ad=0.749p pd=3.4u as=0.749p ps=3.4u w=2.88u l=0.28u
X272 OUT_P OUT2.t48 VSS.t334 VSS.t103 nfet_03v3 ad=0.78p pd=3.52u as=0.78p ps=3.52u w=3u l=0.28u
X273 OUT_N OUT1.t51 VSS.t102 VSS.t101 nfet_03v3 ad=1.32p pd=6.88u as=0.78p ps=3.52u w=3u l=0.28u
X274 VDD IBIAS2.t204 OUT_N.t202 VDD.t67 pfet_03v3 ad=0.78p pd=3.52u as=0.78p ps=3.52u w=3u l=0.28u
X275 VB2 VB2.t14 IB2.t14 VDD.t783 pfet_03v3 ad=0.13p pd=1.02u as=0.13p ps=1.02u w=0.5u l=0.28u
X276 OUT_P IBIAS2.t205 VDD.t491 VDD.t41 pfet_03v3 ad=0.78p pd=3.52u as=0.78p ps=3.52u w=3u l=0.28u
X277 IVS IBIAS3.t36 VDD.t1078 VDD.t364 pfet_03v3 ad=0.78p pd=3.52u as=0.78p ps=3.52u w=3u l=0.28u
X278 IBIAS2 IVS.t79 VSS.t643 VSS.t344 nfet_03v3 ad=0.52p pd=2.52u as=0.52p ps=2.52u w=2u l=1u
X279 OUT2 VB2.t42 VPD.t22 VDD.t103 pfet_03v3 ad=0.814p pd=3.65u as=1.38p ps=7.14u w=3.13u l=0.28u
X280 OUT2 VB3.t25 IPD.t43 VSS.t0 nfet_03v3 ad=1.27p pd=6.64u as=0.749p ps=3.4u w=2.88u l=0.28u
X281 OUT_N OUT1.t52 VSS.t104 VSS.t103 nfet_03v3 ad=0.78p pd=3.52u as=0.78p ps=3.52u w=3u l=0.28u
X282 VDD.t1351 VDD.t1350 VDD.t1351 VDD.t1247 pfet_03v3 ad=1.32p pd=6.88u as=0 ps=0 w=3u l=0.28u
X283 VPD VB2.t43 OUT2.t31 VDD.t354 pfet_03v3 ad=1.38p pd=7.14u as=0.814p ps=3.65u w=3.13u l=0.28u
X284 OUT_N IBIAS2.t206 VDD.t493 VDD.t492 pfet_03v3 ad=0.78p pd=3.52u as=0.78p ps=3.52u w=3u l=0.28u
X285 IBIAS2 IBIAS2.t96 VDD.t196 VDD.t195 pfet_03v3 ad=0.78p pd=3.52u as=0.78p ps=3.52u w=3u l=0.28u
X286 VSS OUT2.t49 OUT_P.t238 VSS.t40 nfet_03v3 ad=0.78p pd=3.52u as=0.78p ps=3.52u w=3u l=0.28u
X287 VSS OUT2.t50 OUT_P.t239 VSS.t10 nfet_03v3 ad=0.78p pd=3.52u as=0.78p ps=3.52u w=3u l=0.28u
X288 IBIAS2 IBIAS2.t94 VDD.t143 VDD.t142 pfet_03v3 ad=0.78p pd=3.52u as=0.78p ps=3.52u w=3u l=0.28u
X289 IND VB4.t54 VSS.t259 VSS.t197 nfet_03v3 ad=0.749p pd=3.4u as=0.749p ps=3.4u w=2.88u l=0.28u
X290 IPD VB4.t55 VSS.t258 VSS.t164 nfet_03v3 ad=1.27p pd=6.64u as=0.749p ps=3.4u w=2.88u l=0.28u
X291 VDD IBIAS2.t209 OUT_N.t200 VDD.t494 pfet_03v3 ad=0.78p pd=3.52u as=1.32p ps=6.88u w=3u l=0.28u
X292 OUT_N IBIAS2.t210 VDD.t487 VDD.t385 pfet_03v3 ad=1.32p pd=6.88u as=0.78p ps=3.52u w=3u l=0.28u
X293 VSS.t555 VSS.t554 VSS.t555 VSS.t425 nfet_03v3 ad=1.32p pd=6.88u as=0 ps=0 w=3u l=0.28u
X294 OUT_P IBIAS2.t211 VDD.t488 VDD.t94 pfet_03v3 ad=0.78p pd=3.52u as=0.78p ps=3.52u w=3u l=0.28u
X295 IBIAS2 IBIAS2.t92 VDD.t141 VDD.t140 pfet_03v3 ad=0.78p pd=3.52u as=0.78p ps=3.52u w=3u l=0.28u
X296 IVS IBIAS3.t37 VDD.t946 VDD.t184 pfet_03v3 ad=0.78p pd=3.52u as=0.78p ps=3.52u w=3u l=0.28u
X297 OUT_P OUT2.t51 VSS.t84 VSS.t83 nfet_03v3 ad=0.78p pd=3.52u as=0.78p ps=3.52u w=3u l=0.28u
X298 VDD.t1349 VDD.t1348 VDD.t1349 VDD.t1212 pfet_03v3 ad=1.76p pd=8.88u as=0 ps=0 w=4u l=0.28u
X299 VDD IBIAS2.t213 OUT_N.t198 VDD.t83 pfet_03v3 ad=0.78p pd=3.52u as=0.78p ps=3.52u w=3u l=0.28u
X300 VBM VCM.t4 VCD.t38 VSS.t142 nfet_03v3 ad=0.26p pd=1.52u as=0.26p ps=1.52u w=1u l=0.28u
X301 OUT_P IBIAS2.t214 VDD.t53 VDD.t52 pfet_03v3 ad=0.78p pd=3.52u as=0.78p ps=3.52u w=3u l=0.28u
X302 VDD.t399 VDD.t400 VDD.t396 ppolyf_u r_width=1u r_length=5u
X303 VCD VBIASN.t8 VSS.t50 VSS.t49 nfet_03v3 ad=0.26p pd=1.52u as=0.26p ps=1.52u w=1u l=0.56u
X304 VSS VB4.t24 VB4.t25 VSS.t255 nfet_03v3 ad=0.26p pd=1.52u as=0.26p ps=1.52u w=1u l=0.28u
X305 BD IN_N.t3 IND.t44 VDD.t361 pfet_03v3 ad=0.975p pd=4.27u as=1.65p ps=8.38u w=3.75u l=0.28u
X306 VDD.t1347 VDD.t1346 VDD.t1347 VDD.t1261 pfet_03v3 ad=1.38p pd=7.14u as=0 ps=0 w=3.13u l=0.28u
X307 VDD IBIAS2.t215 OUT_P.t187 VDD.t54 pfet_03v3 ad=0.78p pd=3.52u as=0.78p ps=3.52u w=3u l=0.28u
X308 VDD IBIAS2.t216 OUT_P.t186 VDD.t57 pfet_03v3 ad=0.78p pd=3.52u as=0.78p ps=3.52u w=3u l=0.28u