* NGSPICE file created from fold_cascode_opamp_mag_flat.ext - technology: gf180mcuC

.subckt fold_cascode_opamp_mag_flat VDD VSS VINP VINN OUT VC VD VX VA VB VBS2 VBS3
+ VBIASN IBIAS2 VBIASN2 IBIAS3 IBIAS OUTo VP c_mid
X0 VDD IBIAS3.t78 OUTo.t141 VDD.t195 pfet_03v3 ad=0.78p pd=3.52u as=0.78p ps=3.52u w=3u l=0.28u
X1 VSS.t196 VSS.t195 VSS.t196 VSS.t158 nfet_03v3 ad=0.78p pd=3.52u as=0 ps=0 w=3u l=0.28u
X2 VDD.t134 VDD.t133 VDD.t134 VDD.t68 pfet_03v3 ad=0.88p pd=4.88u as=0 ps=0 w=2u l=1u
X3 OUTo IBIAS3.t79 VDD.t387 VDD.t153 pfet_03v3 ad=0.78p pd=3.52u as=0.78p ps=3.52u w=3u l=0.28u
X4 VDD IBIAS3.t66 IBIAS3.t67 VDD.t157 pfet_03v3 ad=0.78p pd=3.52u as=0.78p ps=3.52u w=3u l=0.28u
X5 VSS OUT.t30 OUTo.t40 VSS.t23 nfet_03v3 ad=0.78p pd=3.52u as=0.78p ps=3.52u w=3u l=0.28u
X6 VDD IBIAS.t6 VBS3.t7 VDD.t36 pfet_03v3 ad=0.52p pd=2.52u as=0.52p ps=2.52u w=2u l=0.56u
X7 VA VBS2.t4 VX.t1 VDD.t23 pfet_03v3 ad=0.78p pd=3.52u as=1.32p ps=6.88u w=3u l=0.28u
X8 VSS VX.t20 VC.t52 VSS.t138 nfet_03v3 ad=0.78p pd=3.52u as=0.78p ps=3.52u w=3u l=0.28u
X9 VSS VX.t21 VC.t51 VSS.t141 nfet_03v3 ad=0.78p pd=3.52u as=0.78p ps=3.52u w=3u l=0.28u
X10 VDD IBIAS3.t80 OUTo.t140 VDD.t141 pfet_03v3 ad=0.78p pd=3.52u as=0.78p ps=3.52u w=3u l=0.28u
X11 OUTo IBIAS3.t81 VDD.t382 VDD.t169 pfet_03v3 ad=0.78p pd=3.52u as=0.78p ps=3.52u w=3u l=0.28u
X12 VD VBS3.t8 OUT.t22 VSS.t220 nfet_03v3 ad=1.32p pd=6.88u as=0.78p ps=3.52u w=3u l=0.28u
X13 VDD.t132 VDD.t131 VDD.t132 VDD.t48 pfet_03v3 ad=0.78p pd=3.52u as=0 ps=0 w=3u l=0.28u
X14 VC VX.t22 VSS.t145 VSS.t144 nfet_03v3 ad=0.78p pd=3.52u as=0.78p ps=3.52u w=3u l=0.28u
X15 OUTo IBIAS3.t82 VDD.t381 VDD.t207 pfet_03v3 ad=0.78p pd=3.52u as=0.78p ps=3.52u w=3u l=0.28u
X16 VX.t11 VX.t10 VX.t11 VSS.t70 nfet_03v3 ad=0.78p pd=3.52u as=0 ps=0 w=3u l=0.28u
X17 VSS.t194 VSS.t193 VSS.t194 VSS.t152 nfet_03v3 ad=1.32p pd=6.88u as=0 ps=0 w=3u l=0.28u
X18 VP VINP.t0 VD.t4 VDD.t8 pfet_03v3 ad=0.78p pd=3.52u as=0.78p ps=3.52u w=3u l=0.28u
X19 IBIAS3 VBIASN2.t20 VSS.t94 VSS.t89 nfet_03v3 ad=0.88p pd=4.88u as=0.52p ps=2.52u w=2u l=1u
X20 VX VBS3.t9 VC.t60 VSS.t219 nfet_03v3 ad=0.78p pd=3.52u as=1.32p ps=6.88u w=3u l=0.28u
X21 VSS OUT.t31 OUTo.t41 VSS.t27 nfet_03v3 ad=0.78p pd=3.52u as=0.78p ps=3.52u w=3u l=0.28u
X22 VD.t22 VD.t21 VD.t22 VSS.t77 nfet_03v3 ad=1.32p pd=6.88u as=0 ps=0 w=3u l=0.28u
X23 OUTo OUT.t32 VSS.t75 VSS.t4 nfet_03v3 ad=0.78p pd=3.52u as=0.78p ps=3.52u w=3u l=0.28u
X24 OUTo IBIAS3.t83 VDD.t380 VDD.t160 pfet_03v3 ad=0.78p pd=3.52u as=0.78p ps=3.52u w=3u l=0.28u
X25 VSS VD.t33 VD.t34 VSS.t135 nfet_03v3 ad=0.78p pd=3.52u as=0.78p ps=3.52u w=3u l=0.28u
X26 OUTo IBIAS3.t84 VDD.t379 VDD.t169 pfet_03v3 ad=0.78p pd=3.52u as=0.78p ps=3.52u w=3u l=0.28u
X27 VDD IBIAS3.t85 OUTo.t139 VDD.t209 pfet_03v3 ad=0.78p pd=3.52u as=0.78p ps=3.52u w=3u l=0.28u
X28 VDD IBIAS3.t86 OUTo.t138 VDD.t272 pfet_03v3 ad=0.78p pd=3.52u as=0.78p ps=3.52u w=3u l=0.28u
X29 VDD.t130 VDD.t129 VDD.t130 VDD.t54 pfet_03v3 ad=0.78p pd=3.52u as=0 ps=0 w=3u l=0.28u
X30 VSS VX.t23 VD.t53 VSS.t146 nfet_03v3 ad=0.78p pd=3.52u as=0.78p ps=3.52u w=3u l=0.28u
X31 VC VINN.t0 VP.t9 VDD.t22 pfet_03v3 ad=0.78p pd=3.52u as=0.78p ps=3.52u w=3u l=0.28u
X32 c_mid.t4 OUT.t0 cap_mim_2f0_m4m5_noshield c_width=24u c_length=15.5u
X33 OUTo OUT.t33 VSS.t40 VSS.t6 nfet_03v3 ad=0.78p pd=3.52u as=0.78p ps=3.52u w=3u l=0.28u
X34 OUT.t21 OUT.t20 OUT.t21 VSS.t70 nfet_03v3 ad=0.78p pd=3.52u as=0 ps=0 w=3u l=0.28u
X35 OUTo IBIAS3.t87 VDD.t374 VDD.t201 pfet_03v3 ad=0.78p pd=3.52u as=0.78p ps=3.52u w=3u l=0.28u
X36 VDD IBIAS3.t88 OUTo.t137 VDD.t190 pfet_03v3 ad=0.78p pd=3.52u as=0.78p ps=3.52u w=3u l=0.28u
X37 VD VD.t31 VSS.t134 VSS.t133 nfet_03v3 ad=0.78p pd=3.52u as=0.78p ps=3.52u w=3u l=0.28u
X38 VP IBIAS.t7 VDD.t40 VDD.t39 pfet_03v3 ad=0.78p pd=3.52u as=0.78p ps=3.52u w=3u l=0.56u
X39 VBS2 VBIASN.t4 VSS.t117 VSS.t116 nfet_03v3 ad=0.88p pd=4.88u as=0.52p ps=2.52u w=2u l=0.56u
X40 VC.t15 VC.t14 VC.t15 VDD.t392 pfet_03v3 ad=1.32p pd=6.88u as=0 ps=0 w=3u l=0.28u
X41 VC.t13 VC.t12 VC.t13 VDD.t392 pfet_03v3 ad=1.32p pd=6.88u as=0 ps=0 w=3u l=0.28u
X42 VDD.t128 VDD.t127 VDD.t128 VDD.t81 pfet_03v3 ad=1.32p pd=6.88u as=0 ps=0 w=3u l=0.28u
X43 VDD IBIAS3.t64 IBIAS3.t65 VDD.t146 pfet_03v3 ad=0.78p pd=3.52u as=0.78p ps=3.52u w=3u l=0.28u
X44 VSS VX.t24 VC.t49 VSS.t141 nfet_03v3 ad=0.78p pd=3.52u as=0.78p ps=3.52u w=3u l=0.28u
X45 VD VINP.t1 VP.t46 VDD.t19 pfet_03v3 ad=0.78p pd=3.52u as=0.78p ps=3.52u w=3u l=0.28u
X46 VDD IBIAS3.t89 OUTo.t136 VDD.t233 pfet_03v3 ad=0.78p pd=3.52u as=0.78p ps=3.52u w=3u l=0.28u
X47 OUTo OUT.t34 VSS.t41 VSS.t15 nfet_03v3 ad=0.78p pd=3.52u as=0.78p ps=3.52u w=3u l=0.28u
X48 VDD IBIAS3.t90 OUTo.t135 VDD.t272 pfet_03v3 ad=0.78p pd=3.52u as=0.78p ps=3.52u w=3u l=0.28u
X49 VSS OUT.t35 OUTo.t22 VSS.t12 nfet_03v3 ad=0.78p pd=3.52u as=0.78p ps=3.52u w=3u l=0.28u
X50 VB.t11 VB.t10 VB.t11 VDD.t24 pfet_03v3 ad=0.78p pd=3.52u as=0 ps=0 w=3u l=0.56u
X51 VDD VBS2.t0 VBS2.t1 VDD.t468 pfet_03v3 ad=0.52p pd=2.52u as=0.88p ps=4.88u w=2u l=0.56u
X52 VDD IBIAS3.t91 OUTo.t134 VDD.t190 pfet_03v3 ad=0.78p pd=3.52u as=0.78p ps=3.52u w=3u l=0.28u
X53 OUTo IBIAS3.t92 VDD.t365 VDD.t207 pfet_03v3 ad=0.78p pd=3.52u as=0.78p ps=3.52u w=3u l=0.28u
X54 OUTo OUT.t36 VSS.t44 VSS.t10 nfet_03v3 ad=0.78p pd=3.52u as=0.78p ps=3.52u w=3u l=0.28u
X55 VSS VBIASN2.t21 IBIAS3.t9 VSS.t91 nfet_03v3 ad=0.52p pd=2.52u as=0.52p ps=2.52u w=2u l=1u
X56 VSS.t192 VSS.t190 VSS.t192 VSS.t191 nfet_03v3 ad=0.88p pd=4.88u as=0 ps=0 w=2u l=0.56u
X57 IBIAS3 VBIASN2.t22 VSS.t97 VSS.t89 nfet_03v3 ad=0.88p pd=4.88u as=0.52p ps=2.52u w=2u l=1u
X58 VDD IBIAS3.t62 IBIAS3.t63 VDD.t182 pfet_03v3 ad=0.78p pd=3.52u as=0.78p ps=3.52u w=3u l=0.28u
X59 VDD IBIAS3.t93 OUTo.t133 VDD.t209 pfet_03v3 ad=0.78p pd=3.52u as=0.78p ps=3.52u w=3u l=0.28u
X60 IBIAS IBIAS.t4 VDD.t35 VDD.t34 pfet_03v3 ad=0.52p pd=2.52u as=0.52p ps=2.52u w=2u l=0.56u
X61 VP VINP.t2 VD.t67 VDD.t20 pfet_03v3 ad=0.78p pd=3.52u as=0.78p ps=3.52u w=3u l=0.28u
X62 IBIAS3 IBIAS3.t74 VDD.t358 VDD.t214 pfet_03v3 ad=0.78p pd=3.52u as=0.78p ps=3.52u w=3u l=0.28u
X63 VDD IBIAS3.t95 OUTo.t132 VDD.t233 pfet_03v3 ad=0.78p pd=3.52u as=0.78p ps=3.52u w=3u l=0.28u
X64 VDD.t126 VDD.t125 VDD.t126 VDD.t81 pfet_03v3 ad=1.32p pd=6.88u as=0 ps=0 w=3u l=0.28u
X65 VBIASN VBIASN.t0 VSS.t115 VSS.t114 nfet_03v3 ad=0.88p pd=4.88u as=0.88p ps=4.88u w=2u l=0.56u
X66 VSS OUT.t37 OUTo.t24 VSS.t17 nfet_03v3 ad=0.78p pd=3.52u as=0.78p ps=3.52u w=3u l=0.28u
X67 VDD.t124 VDD.t123 VDD.t124 VDD.t78 pfet_03v3 ad=0.78p pd=3.52u as=0 ps=0 w=3u l=0.28u
X68 VA VBS2.t5 VX.t0 VDD.t23 pfet_03v3 ad=0.78p pd=3.52u as=1.32p ps=6.88u w=3u l=0.28u
X69 OUTo IBIAS3.t96 VDD.t355 VDD.t174 pfet_03v3 ad=0.78p pd=3.52u as=0.78p ps=3.52u w=3u l=0.28u
X70 OUTo OUT.t38 VSS.t47 VSS.t4 nfet_03v3 ad=0.78p pd=3.52u as=0.78p ps=3.52u w=3u l=0.28u
X71 VX VBS3.t10 VC.t59 VSS.t218 nfet_03v3 ad=0.78p pd=3.52u as=1.32p ps=6.88u w=3u l=0.28u
X72 OUTo IBIAS3.t97 VDD.t354 VDD.t160 pfet_03v3 ad=0.78p pd=3.52u as=0.78p ps=3.52u w=3u l=0.28u
X73 VDD.t122 VDD.t121 VDD.t122 VDD.t65 pfet_03v3 ad=1.32p pd=6.88u as=0 ps=0 w=3u l=0.28u
X74 VDD.t120 VDD.t119 VDD.t120 VDD.t54 pfet_03v3 ad=0.78p pd=3.52u as=0 ps=0 w=3u l=0.28u
X75 VSS OUT.t39 OUTo.t26 VSS.t1 nfet_03v3 ad=0.78p pd=3.52u as=0.78p ps=3.52u w=3u l=0.28u
X76 VBIASN2 IBIAS2.t5 VDD.t29 VDD.t28 pfet_03v3 ad=0.52p pd=2.52u as=0.52p ps=2.52u w=2u l=1u
X77 VDD.t118 VDD.t117 VDD.t118 VDD.t48 pfet_03v3 ad=0.78p pd=3.52u as=0 ps=0 w=3u l=0.28u
X78 VSS VBIASN2.t23 IBIAS3.t11 VSS.t98 nfet_03v3 ad=0.52p pd=2.52u as=0.88p ps=4.88u w=2u l=1u
X79 VDD IBIAS3.t98 OUTo.t131 VDD.t222 pfet_03v3 ad=0.78p pd=3.52u as=0.78p ps=3.52u w=3u l=0.28u
X80 VDD IBIAS.t9 VP.t62 VDD.t41 pfet_03v3 ad=0.78p pd=3.52u as=0.78p ps=3.52u w=3u l=0.56u
X81 VP VINN.t1 VC.t62 VDD.t0 pfet_03v3 ad=0.78p pd=3.52u as=0.78p ps=3.52u w=3u l=0.28u
X82 c_mid.t3 OUTo.t183 VDD.t458 ppolyf_u r_width=0.8u r_length=6.46u
X83 VP IBIAS.t10 VDD.t44 VDD.t39 pfet_03v3 ad=0.78p pd=3.52u as=0.78p ps=3.52u w=3u l=0.56u
X84 VBS3 IBIAS.t11 VDD.t46 VDD.t45 pfet_03v3 ad=0.52p pd=2.52u as=0.52p ps=2.52u w=2u l=0.56u
X85 VDD IBIAS3.t99 OUTo.t130 VDD.t209 pfet_03v3 ad=0.78p pd=3.52u as=0.78p ps=3.52u w=3u l=0.28u
X86 VSS VX.t25 VC.t48 VSS.t197 nfet_03v3 ad=0.78p pd=3.52u as=0.78p ps=3.52u w=3u l=0.28u
X87 VA.t11 VA.t10 VA.t11 VDD.t24 pfet_03v3 ad=0.78p pd=3.52u as=0 ps=0 w=3u l=0.56u
X88 VSS VBIASN2.t24 IBIAS3.t12 VSS.t91 nfet_03v3 ad=0.52p pd=2.52u as=0.52p ps=2.52u w=2u l=1u
X89 VP IBIAS.t12 VDD.t396 VDD.t395 pfet_03v3 ad=0.78p pd=3.52u as=0.78p ps=3.52u w=3u l=0.56u
X90 VDD IBIAS3.t100 OUTo.t129 VDD.t176 pfet_03v3 ad=0.78p pd=3.52u as=0.78p ps=3.52u w=3u l=0.28u
X91 OUTo OUT.t40 VSS.t50 VSS.t8 nfet_03v3 ad=0.78p pd=3.52u as=0.78p ps=3.52u w=3u l=0.28u
X92 OUTo IBIAS3.t101 VDD.t347 VDD.t160 pfet_03v3 ad=0.78p pd=3.52u as=0.78p ps=3.52u w=3u l=0.28u
X93 VDD.t116 VDD.t115 VDD.t116 VDD.t78 pfet_03v3 ad=0.78p pd=3.52u as=0 ps=0 w=3u l=0.28u
X94 VDD.t114 VDD.t113 VDD.t114 VDD.t73 pfet_03v3 ad=1.32p pd=6.88u as=0 ps=0 w=3u l=0.28u
X95 VDD IBIAS3.t102 OUTo.t128 VDD.t179 pfet_03v3 ad=0.78p pd=3.52u as=0.78p ps=3.52u w=3u l=0.28u
X96 VSS.t189 VSS.t188 VSS.t189 VSS.t152 nfet_03v3 ad=1.32p pd=6.88u as=0 ps=0 w=3u l=0.28u
X97 VSS OUT.t41 OUTo.t28 VSS.t23 nfet_03v3 ad=0.78p pd=3.52u as=0.78p ps=3.52u w=3u l=0.28u
X98 VC VX.t26 VSS.t201 VSS.t200 nfet_03v3 ad=0.78p pd=3.52u as=0.78p ps=3.52u w=3u l=0.28u
X99 VP IBIAS.t13 VDD.t397 VDD.t395 pfet_03v3 ad=0.78p pd=3.52u as=0.78p ps=3.52u w=3u l=0.56u
X100 IBIAS3 VBIASN2.t25 VSS.t104 VSS.t103 nfet_03v3 ad=0.52p pd=2.52u as=0.52p ps=2.52u w=2u l=1u
X101 VDD.t12 VDD.t13 VDD.t11 ppolyf_u r_width=0.8u r_length=6.46u
X102 OUTo OUT.t42 VSS.t53 VSS.t10 nfet_03v3 ad=0.78p pd=3.52u as=0.78p ps=3.52u w=3u l=0.28u
X103 VDD IBIAS3.t103 OUTo.t127 VDD.t222 pfet_03v3 ad=0.78p pd=3.52u as=0.78p ps=3.52u w=3u l=0.28u
X104 VSS.t187 VSS.t186 VSS.t187 VSS.t174 nfet_03v3 ad=0.88p pd=4.88u as=0 ps=0 w=2u l=1u
X105 VD VX.t27 VSS.t203 VSS.t202 nfet_03v3 ad=0.78p pd=3.52u as=0.78p ps=3.52u w=3u l=0.28u
X106 VSS VC.t26 VC.t27 VSS.t111 nfet_03v3 ad=0.78p pd=3.52u as=0.78p ps=3.52u w=3u l=0.28u
X107 OUT.t19 OUT.t18 OUT.t19 VSS.t70 nfet_03v3 ad=0.78p pd=3.52u as=0 ps=0 w=3u l=0.28u
X108 VC VX.t28 VSS.t205 VSS.t204 nfet_03v3 ad=0.78p pd=3.52u as=0.78p ps=3.52u w=3u l=0.28u
X109 VDD IBIAS3.t104 OUTo.t126 VDD.t179 pfet_03v3 ad=0.78p pd=3.52u as=0.78p ps=3.52u w=3u l=0.28u
X110 IBIAS2 IBIAS2.t3 VDD.t439 VDD.t25 pfet_03v3 ad=0.88p pd=4.88u as=0.52p ps=2.52u w=2u l=1u
X111 VSS OUT.t43 OUTo.t30 VSS.t27 nfet_03v3 ad=0.78p pd=3.52u as=0.78p ps=3.52u w=3u l=0.28u
X112 VDD IBIAS3.t60 IBIAS3.t61 VDD.t146 pfet_03v3 ad=0.78p pd=3.52u as=0.78p ps=3.52u w=3u l=0.28u
X113 VC VINN.t2 VP.t11 VDD.t15 pfet_03v3 ad=0.78p pd=3.52u as=0.78p ps=3.52u w=3u l=0.28u
X114 OUTo IBIAS3.t105 VDD.t338 VDD.t171 pfet_03v3 ad=0.78p pd=3.52u as=0.78p ps=3.52u w=3u l=0.28u
X115 VC VINN.t3 VP.t12 VDD.t15 pfet_03v3 ad=0.78p pd=3.52u as=0.78p ps=3.52u w=3u l=0.28u
X116 OUTo OUT.t44 VSS.t56 VSS.t15 nfet_03v3 ad=0.78p pd=3.52u as=0.78p ps=3.52u w=3u l=0.28u
X117 VDD IBIAS3.t106 OUTo.t125 VDD.t138 pfet_03v3 ad=0.78p pd=3.52u as=0.78p ps=3.52u w=3u l=0.28u
X118 VSS OUT.t45 OUTo.t32 VSS.t17 nfet_03v3 ad=0.78p pd=3.52u as=0.78p ps=3.52u w=3u l=0.28u
X119 VDD.t112 VDD.t111 VDD.t112 VDD.t78 pfet_03v3 ad=0.78p pd=3.52u as=0 ps=0 w=3u l=0.28u
X120 VC VBS3.t11 VX.t18 VSS.t221 nfet_03v3 ad=1.32p pd=6.88u as=0.78p ps=3.52u w=3u l=0.28u
X121 VDD.t110 VDD.t109 VDD.t110 VDD.t73 pfet_03v3 ad=1.32p pd=6.88u as=0 ps=0 w=3u l=0.28u
X122 VDD IBIAS.t14 VA.t19 VDD.t398 pfet_03v3 ad=0.78p pd=3.52u as=0.78p ps=3.52u w=3u l=0.56u
X123 IBIAS3 IBIAS3.t24 VDD.t335 VDD.t217 pfet_03v3 ad=0.78p pd=3.52u as=0.78p ps=3.52u w=3u l=0.28u
X124 VDD IBIAS.t15 VP.t58 VDD.t401 pfet_03v3 ad=0.78p pd=3.52u as=0.78p ps=3.52u w=3u l=0.56u
X125 VP.t31 VP.t30 VP.t31 VDD.t7 pfet_03v3 ad=0.78p pd=3.52u as=0 ps=0 w=3u l=0.56u
X126 VB VBS2.t6 OUT.t27 VDD.t460 pfet_03v3 ad=1.32p pd=6.88u as=0.78p ps=3.52u w=3u l=0.28u
X127 c_mid.t2 OUTo.t182 VDD.t391 ppolyf_u r_width=0.8u r_length=6.46u
X128 OUTo IBIAS3.t108 VDD.t334 VDD.t174 pfet_03v3 ad=0.78p pd=3.52u as=0.78p ps=3.52u w=3u l=0.28u
X129 VBIASN2 VBIASN2.t15 VSS.t280 VSS.t277 nfet_03v3 ad=0.52p pd=2.52u as=0.52p ps=2.52u w=2u l=1u
X130 VDD.t108 VDD.t106 VDD.t108 VDD.t107 pfet_03v3 ad=0.88p pd=4.88u as=0 ps=0 w=2u l=0.56u
X131 VBIASN2 IBIAS2.t7 VDD.t2 VDD.t1 pfet_03v3 ad=0.52p pd=2.52u as=0.88p ps=4.88u w=2u l=1u
X132 OUTo IBIAS3.t109 VDD.t333 VDD.t153 pfet_03v3 ad=0.78p pd=3.52u as=0.78p ps=3.52u w=3u l=0.28u
X133 VDD IBIAS.t16 VP.t57 VDD.t401 pfet_03v3 ad=0.78p pd=3.52u as=0.78p ps=3.52u w=3u l=0.56u
X134 OUTo IBIAS3.t110 VDD.t332 VDD.t193 pfet_03v3 ad=0.78p pd=3.52u as=0.78p ps=3.52u w=3u l=0.28u
X135 VC VX.t29 VSS.t206 VSS.t200 nfet_03v3 ad=0.78p pd=3.52u as=0.78p ps=3.52u w=3u l=0.28u
X136 VDD IBIAS3.t111 OUTo.t124 VDD.t222 pfet_03v3 ad=0.78p pd=3.52u as=0.78p ps=3.52u w=3u l=0.28u
X137 VDD.t105 VDD.t104 VDD.t105 VDD.t48 pfet_03v3 ad=0.78p pd=3.52u as=0 ps=0 w=3u l=0.28u
X138 VD VX.t30 VSS.t207 VSS.t204 nfet_03v3 ad=0.78p pd=3.52u as=0.78p ps=3.52u w=3u l=0.28u
X139 VDD.t103 VDD.t102 VDD.t103 VDD.t48 pfet_03v3 ad=0.78p pd=3.52u as=0 ps=0 w=3u l=0.28u
X140 OUTo IBIAS3.t112 VDD.t329 VDD.t144 pfet_03v3 ad=0.78p pd=3.52u as=0.78p ps=3.52u w=3u l=0.28u
X141 VSS OUT.t46 OUTo.t33 VSS.t27 nfet_03v3 ad=0.78p pd=3.52u as=0.78p ps=3.52u w=3u l=0.28u
X142 VSS.t185 VSS.t184 VSS.t185 VSS.t158 nfet_03v3 ad=0.78p pd=3.52u as=0 ps=0 w=3u l=0.28u
X143 VDD.t101 VDD.t100 VDD.t101 VDD.t78 pfet_03v3 ad=0.78p pd=3.52u as=0 ps=0 w=3u l=0.28u
X144 VC VBS3.t12 VX.t17 VSS.t220 nfet_03v3 ad=1.32p pd=6.88u as=0.78p ps=3.52u w=3u l=0.28u
X145 VDD.t99 VDD.t98 VDD.t99 VDD.t73 pfet_03v3 ad=1.32p pd=6.88u as=0 ps=0 w=3u l=0.28u
X146 VSS VD.t29 VD.t30 VSS.t130 nfet_03v3 ad=0.78p pd=3.52u as=0.78p ps=3.52u w=3u l=0.28u
X147 VC VC.t24 VSS.t292 VSS.t291 nfet_03v3 ad=0.78p pd=3.52u as=0.78p ps=3.52u w=3u l=0.28u
X148 IBIAS3 IBIAS3.t26 VDD.t328 VDD.t217 pfet_03v3 ad=0.78p pd=3.52u as=0.78p ps=3.52u w=3u l=0.28u
X149 VP.t29 VP.t28 VP.t29 VDD.t7 pfet_03v3 ad=0.78p pd=3.52u as=0 ps=0 w=3u l=0.56u
X150 VDD.t97 VDD.t96 VDD.t97 VDD.t54 pfet_03v3 ad=0.78p pd=3.52u as=0 ps=0 w=3u l=0.28u
X151 VD VBS3.t13 OUT.t23 VSS.t221 nfet_03v3 ad=1.32p pd=6.88u as=0.78p ps=3.52u w=3u l=0.28u
X152 VSS VBIASN2.t27 IBIAS3.t14 VSS.t98 nfet_03v3 ad=0.52p pd=2.52u as=0.88p ps=4.88u w=2u l=1u
X153 VD.t20 VD.t19 VD.t20 VSS.t76 nfet_03v3 ad=0.78p pd=3.52u as=0 ps=0 w=3u l=0.28u
X154 VD.t18 VD.t17 VD.t18 VDD.t392 pfet_03v3 ad=1.32p pd=6.88u as=0 ps=0 w=3u l=0.28u
X155 VP VINP.t3 VD.t2 VDD.t8 pfet_03v3 ad=0.78p pd=3.52u as=0.78p ps=3.52u w=3u l=0.28u
X156 VDD.t95 VDD.t94 VDD.t95 VDD.t81 pfet_03v3 ad=1.32p pd=6.88u as=0 ps=0 w=3u l=0.28u
X157 VSS VBS3.t2 VBS3.t3 VSS.t293 nfet_03v3 ad=0.52p pd=2.52u as=0.52p ps=2.52u w=2u l=0.56u
X158 VSS OUT.t47 OUTo.t34 VSS.t23 nfet_03v3 ad=0.78p pd=3.52u as=0.78p ps=3.52u w=3u l=0.28u
X159 VP.t27 VP.t26 VP.t27 VDD.t7 pfet_03v3 ad=0.78p pd=3.52u as=0 ps=0 w=3u l=0.56u
X160 VDD IBIAS3.t114 OUTo.t123 VDD.t195 pfet_03v3 ad=0.78p pd=3.52u as=0.78p ps=3.52u w=3u l=0.28u
X161 VSS.t183 VSS.t182 VSS.t183 VSS.t152 nfet_03v3 ad=1.32p pd=6.88u as=0 ps=0 w=3u l=0.28u
X162 OUTo IBIAS3.t115 VDD.t325 VDD.t169 pfet_03v3 ad=0.78p pd=3.52u as=0.78p ps=3.52u w=3u l=0.28u
X163 VC VX.t31 VSS.t208 VSS.t204 nfet_03v3 ad=0.78p pd=3.52u as=0.78p ps=3.52u w=3u l=0.28u
X164 VDD.t93 VDD.t92 VDD.t93 VDD.t65 pfet_03v3 ad=1.32p pd=6.88u as=0 ps=0 w=3u l=0.28u
X165 OUTo IBIAS3.t116 VDD.t324 VDD.t201 pfet_03v3 ad=0.78p pd=3.52u as=0.78p ps=3.52u w=3u l=0.28u
X166 VDD.t91 VDD.t90 VDD.t91 VDD.t51 pfet_03v3 ad=0.52p pd=2.52u as=0 ps=0 w=2u l=1u
X167 VDD IBIAS3.t117 OUTo.t122 VDD.t141 pfet_03v3 ad=0.78p pd=3.52u as=0.78p ps=3.52u w=3u l=0.28u
X168 c_mid.t1 OUTo.t181 VDD.t390 ppolyf_u r_width=0.8u r_length=6.46u
X169 VDD IBIAS3.t118 OUTo.t121 VDD.t138 pfet_03v3 ad=0.78p pd=3.52u as=0.78p ps=3.52u w=3u l=0.28u
X170 VC VINN.t4 VP.t13 VDD.t22 pfet_03v3 ad=0.78p pd=3.52u as=0.78p ps=3.52u w=3u l=0.28u
X171 IBIAS3 VBIASN2.t28 VSS.t107 VSS.t103 nfet_03v3 ad=0.52p pd=2.52u as=0.52p ps=2.52u w=2u l=1u
X172 VA.t9 VA.t8 VA.t9 VDD.t24 pfet_03v3 ad=0.78p pd=3.52u as=0 ps=0 w=3u l=0.56u
X173 VSS OUT.t48 OUTo.t35 VSS.t27 nfet_03v3 ad=0.78p pd=3.52u as=0.78p ps=3.52u w=3u l=0.28u
X174 VDD IBIAS3.t119 OUTo.t120 VDD.t190 pfet_03v3 ad=0.78p pd=3.52u as=0.78p ps=3.52u w=3u l=0.28u
X175 OUTo OUT.t49 VSS.t65 VSS.t15 nfet_03v3 ad=0.78p pd=3.52u as=0.78p ps=3.52u w=3u l=0.28u
X176 VSS.t181 VSS.t180 VSS.t181 VSS.t174 nfet_03v3 ad=0.88p pd=4.88u as=0 ps=0 w=2u l=1u
X177 OUTo OUT.t50 VSS.t66 VSS.t4 nfet_03v3 ad=0.78p pd=3.52u as=0.78p ps=3.52u w=3u l=0.28u
X178 VDD IBIAS3.t120 OUTo.t119 VDD.t135 pfet_03v3 ad=0.78p pd=3.52u as=0.78p ps=3.52u w=3u l=0.28u
X179 VDD IBIAS3.t121 OUTo.t118 VDD.t272 pfet_03v3 ad=0.78p pd=3.52u as=0.78p ps=3.52u w=3u l=0.28u
X180 VD VINP.t4 VP.t43 VDD.t9 pfet_03v3 ad=0.78p pd=3.52u as=0.78p ps=3.52u w=3u l=0.28u
X181 c_mid.t0 OUTo.t43 VDD.t33 ppolyf_u r_width=0.8u r_length=6.46u
X182 VDD.t89 VDD.t88 VDD.t89 VDD.t65 pfet_03v3 ad=1.32p pd=6.88u as=0 ps=0 w=3u l=0.28u
X183 OUT VBS2.t7 VB.t2 VDD.t27 pfet_03v3 ad=0.78p pd=3.52u as=1.32p ps=6.88u w=3u l=0.28u
X184 IBIAS3 IBIAS3.t70 VDD.t314 VDD.t167 pfet_03v3 ad=0.78p pd=3.52u as=0.78p ps=3.52u w=3u l=0.28u
X185 VD VINP.t5 VP.t42 VDD.t9 pfet_03v3 ad=0.78p pd=3.52u as=0.78p ps=3.52u w=3u l=0.28u
X186 OUTo IBIAS3.t123 VDD.t313 VDD.t212 pfet_03v3 ad=0.78p pd=3.52u as=0.78p ps=3.52u w=3u l=0.28u
X187 OUTo IBIAS3.t124 VDD.t312 VDD.t169 pfet_03v3 ad=0.78p pd=3.52u as=0.78p ps=3.52u w=3u l=0.28u
X188 VD VD.t27 VSS.t129 VSS.t128 nfet_03v3 ad=0.78p pd=3.52u as=1.32p ps=6.88u w=3u l=0.28u
X189 OUTo OUT.t51 VSS.t67 VSS.t6 nfet_03v3 ad=0.78p pd=3.52u as=0.78p ps=3.52u w=3u l=0.28u
X190 OUTo IBIAS3.t125 VDD.t311 VDD.t212 pfet_03v3 ad=0.78p pd=3.52u as=0.78p ps=3.52u w=3u l=0.28u
X191 VDD IBIAS3.t126 OUTo.t117 VDD.t141 pfet_03v3 ad=0.78p pd=3.52u as=0.78p ps=3.52u w=3u l=0.28u
X192 VX.t9 VX.t8 VX.t9 VSS.t0 nfet_03v3 ad=1.32p pd=6.88u as=0 ps=0 w=3u l=0.28u
X193 VDD.t87 VDD.t85 VDD.t87 VDD.t86 pfet_03v3 ad=0.52p pd=2.52u as=0 ps=0 w=2u l=0.56u
X194 VSS VBIASN2.t29 IBIAS3.t16 VSS.t98 nfet_03v3 ad=0.52p pd=2.52u as=0.88p ps=4.88u w=2u l=1u
X195 VDD IBIAS.t17 VB.t19 VDD.t398 pfet_03v3 ad=0.78p pd=3.52u as=0.78p ps=3.52u w=3u l=0.56u
X196 OUTo IBIAS3.t127 VDD.t308 VDD.t165 pfet_03v3 ad=0.78p pd=3.52u as=0.78p ps=3.52u w=3u l=0.28u
X197 VBIASN2 VBIASN2.t13 VSS.t279 VSS.t277 nfet_03v3 ad=0.52p pd=2.52u as=0.52p ps=2.52u w=2u l=1u
X198 VSS.t179 VSS.t178 VSS.t179 VSS.t158 nfet_03v3 ad=0.78p pd=3.52u as=0 ps=0 w=3u l=0.28u
X199 VP IBIAS.t18 VDD.t408 VDD.t395 pfet_03v3 ad=0.78p pd=3.52u as=0.78p ps=3.52u w=3u l=0.56u
X200 VSS.t177 VSS.t176 VSS.t177 VSS.t158 nfet_03v3 ad=0.78p pd=3.52u as=0 ps=0 w=3u l=0.28u
X201 VDD.t84 VDD.t83 VDD.t84 VDD.t81 pfet_03v3 ad=1.32p pd=6.88u as=0 ps=0 w=3u l=0.28u
X202 VP VINP.t6 VD.t63 VDD.t14 pfet_03v3 ad=0.78p pd=3.52u as=0.78p ps=3.52u w=3u l=0.28u
X203 VDD IBIAS.t19 VP.t55 VDD.t401 pfet_03v3 ad=0.78p pd=3.52u as=0.78p ps=3.52u w=3u l=0.56u
X204 VP VINP.t7 VD.t5 VDD.t14 pfet_03v3 ad=0.78p pd=3.52u as=0.78p ps=3.52u w=3u l=0.28u
X205 c_mid.t5 OUT.t1 cap_mim_2f0_m4m5_noshield c_width=24u c_length=15.5u
X206 VD.t16 VD.t15 VD.t16 VSS.t76 nfet_03v3 ad=0.78p pd=3.52u as=0 ps=0 w=3u l=0.28u
X207 VB VBS2.t8 OUT.t28 VDD.t460 pfet_03v3 ad=1.32p pd=6.88u as=0.78p ps=3.52u w=3u l=0.28u
X208 VDD IBIAS3.t128 OUTo.t116 VDD.t272 pfet_03v3 ad=0.78p pd=3.52u as=0.78p ps=3.52u w=3u l=0.28u
X209 VSS OUT.t52 OUTo.t39 VSS.t12 nfet_03v3 ad=0.78p pd=3.52u as=0.78p ps=3.52u w=3u l=0.28u
X210 VDD IBIAS3.t129 OUTo.t115 VDD.t148 pfet_03v3 ad=0.78p pd=3.52u as=0.78p ps=3.52u w=3u l=0.28u
X211 IBIAS3 IBIAS3.t34 VDD.t302 VDD.t167 pfet_03v3 ad=0.78p pd=3.52u as=0.78p ps=3.52u w=3u l=0.28u
X212 VDD IBIAS3.t131 OUTo.t114 VDD.t233 pfet_03v3 ad=0.78p pd=3.52u as=0.78p ps=3.52u w=3u l=0.28u
X213 VDD.t466 VDD.t467 VDD.t465 ppolyf_u r_width=0.8u r_length=6.46u
X214 VB IBIAS.t20 VDD.t412 VDD.t411 pfet_03v3 ad=0.78p pd=3.52u as=0.78p ps=3.52u w=3u l=0.56u
X215 IBIAS3 VBIASN2.t31 VSS.t110 VSS.t103 nfet_03v3 ad=0.52p pd=2.52u as=0.52p ps=2.52u w=2u l=1u
X216 VDD.t82 VDD.t80 VDD.t82 VDD.t81 pfet_03v3 ad=1.32p pd=6.88u as=0 ps=0 w=3u l=0.28u
X217 OUT VBS3.t14 VD.t59 VSS.t219 nfet_03v3 ad=0.78p pd=3.52u as=1.32p ps=6.88u w=3u l=0.28u
X218 OUT.t17 OUT.t16 OUT.t17 VSS.t0 nfet_03v3 ad=1.32p pd=6.88u as=0 ps=0 w=3u l=0.28u
X219 VSS.t175 VSS.t173 VSS.t175 VSS.t174 nfet_03v3 ad=0.88p pd=4.88u as=0 ps=0 w=2u l=1u
X220 VSS VX.t32 VD.t50 VSS.t138 nfet_03v3 ad=0.78p pd=3.52u as=0.78p ps=3.52u w=3u l=0.28u
X221 VDD IBIAS2.t8 VBIASN2.t17 VDD.t16 pfet_03v3 ad=0.52p pd=2.52u as=0.52p ps=2.52u w=2u l=1u
X222 VC.t11 VC.t10 VC.t11 VDD.t10 pfet_03v3 ad=0.78p pd=3.52u as=0 ps=0 w=3u l=0.28u
X223 VDD IBIAS3.t132 OUTo.t113 VDD.t176 pfet_03v3 ad=0.78p pd=3.52u as=0.78p ps=3.52u w=3u l=0.28u
X224 VSS OUT.t53 OUTo.t0 VSS.t1 nfet_03v3 ad=0.78p pd=3.52u as=0.78p ps=3.52u w=3u l=0.28u
X225 VC.t9 VC.t8 VC.t9 VDD.t10 pfet_03v3 ad=0.78p pd=3.52u as=0 ps=0 w=3u l=0.28u
X226 IBIAS3 VBIASN2.t32 VSS.t79 VSS.t78 nfet_03v3 ad=0.52p pd=2.52u as=0.52p ps=2.52u w=2u l=1u
X227 VD VINP.t8 VP.t39 VDD.t15 pfet_03v3 ad=0.78p pd=3.52u as=0.78p ps=3.52u w=3u l=0.28u
X228 VDD IBIAS3.t133 OUTo.t112 VDD.t233 pfet_03v3 ad=0.78p pd=3.52u as=0.78p ps=3.52u w=3u l=0.28u
X229 VSS VX.t33 VD.t49 VSS.t138 nfet_03v3 ad=0.78p pd=3.52u as=0.78p ps=3.52u w=3u l=0.28u
X230 OUTo OUT.t54 VSS.t5 VSS.t4 nfet_03v3 ad=0.78p pd=3.52u as=0.78p ps=3.52u w=3u l=0.28u
X231 OUTo IBIAS3.t134 VDD.t295 VDD.t151 pfet_03v3 ad=0.78p pd=3.52u as=0.78p ps=3.52u w=3u l=0.28u
X232 VDD IBIAS3.t135 OUTo.t111 VDD.t135 pfet_03v3 ad=0.78p pd=3.52u as=0.78p ps=3.52u w=3u l=0.28u
X233 VA IBIAS.t21 VDD.t414 VDD.t413 pfet_03v3 ad=0.78p pd=3.52u as=0.78p ps=3.52u w=3u l=0.56u
X234 VC.t7 VC.t6 VC.t7 VSS.t77 nfet_03v3 ad=1.32p pd=6.88u as=0 ps=0 w=3u l=0.28u
X235 OUTo OUT.t55 VSS.t7 VSS.t6 nfet_03v3 ad=0.78p pd=3.52u as=0.78p ps=3.52u w=3u l=0.28u
X236 VD VX.t34 VSS.t213 VSS.t144 nfet_03v3 ad=0.78p pd=3.52u as=0.78p ps=3.52u w=3u l=0.28u
X237 VBIASN2 VBIASN2.t11 VSS.t278 VSS.t277 nfet_03v3 ad=0.52p pd=2.52u as=0.52p ps=2.52u w=2u l=1u
X238 VB.t9 VB.t8 VB.t9 VDD.t24 pfet_03v3 ad=0.78p pd=3.52u as=0 ps=0 w=3u l=0.56u
X239 VA IBIAS.t22 VDD.t415 VDD.t411 pfet_03v3 ad=0.78p pd=3.52u as=0.78p ps=3.52u w=3u l=0.56u
X240 OUTo IBIAS3.t136 VDD.t292 VDD.t153 pfet_03v3 ad=0.78p pd=3.52u as=0.78p ps=3.52u w=3u l=0.28u
X241 VC VC.t22 VSS.t290 VSS.t289 nfet_03v3 ad=0.78p pd=3.52u as=1.32p ps=6.88u w=3u l=0.28u
X242 VBS3 IBIAS.t23 VDD.t417 VDD.t416 pfet_03v3 ad=0.52p pd=2.52u as=0.52p ps=2.52u w=2u l=0.56u
X243 VDD IBIAS3.t137 OUTo.t110 VDD.t222 pfet_03v3 ad=0.78p pd=3.52u as=0.78p ps=3.52u w=3u l=0.28u
X244 OUTo OUT.t56 VSS.t9 VSS.t8 nfet_03v3 ad=0.78p pd=3.52u as=0.78p ps=3.52u w=3u l=0.28u
X245 IBIAS3 IBIAS3.t76 VDD.t289 VDD.t214 pfet_03v3 ad=0.78p pd=3.52u as=0.78p ps=3.52u w=3u l=0.28u
X246 VD VBS3.t15 OUT.t25 VSS.t220 nfet_03v3 ad=1.32p pd=6.88u as=0.78p ps=3.52u w=3u l=0.28u
X247 OUTo IBIAS3.t139 VDD.t288 VDD.t151 pfet_03v3 ad=0.78p pd=3.52u as=0.78p ps=3.52u w=3u l=0.28u
X248 VSS VBIASN2.t34 IBIAS3.t1 VSS.t80 nfet_03v3 ad=0.52p pd=2.52u as=0.52p ps=2.52u w=2u l=1u
X249 VC VBS3.t16 VX.t16 VSS.t221 nfet_03v3 ad=1.32p pd=6.88u as=0.78p ps=3.52u w=3u l=0.28u
X250 VDD IBIAS3.t140 OUTo.t109 VDD.t176 pfet_03v3 ad=0.78p pd=3.52u as=0.78p ps=3.52u w=3u l=0.28u
X251 OUTo IBIAS3.t141 VDD.t285 VDD.t212 pfet_03v3 ad=0.78p pd=3.52u as=0.78p ps=3.52u w=3u l=0.28u
X252 VSS VX.t35 VD.t47 VSS.t141 nfet_03v3 ad=0.78p pd=3.52u as=0.78p ps=3.52u w=3u l=0.28u
X253 VD VD.t25 VSS.t127 VSS.t126 nfet_03v3 ad=0.78p pd=3.52u as=0.78p ps=3.52u w=3u l=0.28u
X254 VDD IBIAS3.t142 OUTo.t108 VDD.t135 pfet_03v3 ad=0.78p pd=3.52u as=0.78p ps=3.52u w=3u l=0.28u
X255 VSS.t172 VSS.t171 VSS.t172 VSS.t155 nfet_03v3 ad=0.88p pd=4.88u as=0 ps=0 w=2u l=1u
X256 VBIASN IBIAS.t24 VDD.t419 VDD.t418 pfet_03v3 ad=0.88p pd=4.88u as=0.52p ps=2.52u w=2u l=0.56u
X257 VDD.t79 VDD.t77 VDD.t79 VDD.t78 pfet_03v3 ad=0.78p pd=3.52u as=0 ps=0 w=3u l=0.28u
X258 IBIAS2 VBIASN.t6 VSS.t119 VSS.t118 nfet_03v3 ad=0.88p pd=4.88u as=0.52p ps=2.52u w=2u l=0.56u
X259 OUT VBS2.t9 VB.t0 VDD.t27 pfet_03v3 ad=0.78p pd=3.52u as=1.32p ps=6.88u w=3u l=0.28u
X260 VDD.t76 VDD.t75 VDD.t76 VDD.t73 pfet_03v3 ad=1.32p pd=6.88u as=0 ps=0 w=3u l=0.28u
X261 VSS.t170 VSS.t169 VSS.t170 VSS.t152 nfet_03v3 ad=1.32p pd=6.88u as=0 ps=0 w=3u l=0.28u
X262 IBIAS3 IBIAS3.t22 VDD.t282 VDD.t214 pfet_03v3 ad=0.78p pd=3.52u as=0.78p ps=3.52u w=3u l=0.28u
X263 OUTo OUT.t57 VSS.t11 VSS.t10 nfet_03v3 ad=0.78p pd=3.52u as=0.78p ps=3.52u w=3u l=0.28u
X264 VDD.t74 VDD.t72 VDD.t74 VDD.t73 pfet_03v3 ad=1.32p pd=6.88u as=0 ps=0 w=3u l=0.28u
X265 IBIAS3 IBIAS3.t72 VDD.t281 VDD.t214 pfet_03v3 ad=0.78p pd=3.52u as=0.78p ps=3.52u w=3u l=0.28u
X266 VDD IBIAS3.t145 OUTo.t107 VDD.t195 pfet_03v3 ad=0.78p pd=3.52u as=0.78p ps=3.52u w=3u l=0.28u
X267 VSS VX.t36 VD.t46 VSS.t146 nfet_03v3 ad=0.78p pd=3.52u as=0.78p ps=3.52u w=3u l=0.28u
X268 VC.t5 VC.t4 VC.t5 VSS.t77 nfet_03v3 ad=1.32p pd=6.88u as=0 ps=0 w=3u l=0.28u
X269 VB IBIAS.t25 VDD.t420 VDD.t413 pfet_03v3 ad=0.78p pd=3.52u as=0.78p ps=3.52u w=3u l=0.56u
X270 VSS VD.t23 VD.t24 VSS.t123 nfet_03v3 ad=1.32p pd=6.88u as=0.78p ps=3.52u w=3u l=0.28u
X271 VDD IBIAS3.t146 OUTo.t106 VDD.t138 pfet_03v3 ad=0.78p pd=3.52u as=0.78p ps=3.52u w=3u l=0.28u
X272 OUTo IBIAS3.t147 VDD.t276 VDD.t212 pfet_03v3 ad=0.78p pd=3.52u as=0.78p ps=3.52u w=3u l=0.28u
X273 VSS OUT.t58 OUTo.t5 VSS.t12 nfet_03v3 ad=0.78p pd=3.52u as=0.78p ps=3.52u w=3u l=0.28u
X274 VBIASN2 IBIAS2.t9 VDD.t457 VDD.t28 pfet_03v3 ad=0.52p pd=2.52u as=0.52p ps=2.52u w=2u l=1u
X275 VDD IBIAS.t26 VB.t16 VDD.t421 pfet_03v3 ad=0.78p pd=3.52u as=0.78p ps=3.52u w=3u l=0.56u
X276 OUTo IBIAS3.t148 VDD.t275 VDD.t193 pfet_03v3 ad=0.78p pd=3.52u as=0.78p ps=3.52u w=3u l=0.28u
X277 OUTo OUT.t59 VSS.t16 VSS.t15 nfet_03v3 ad=0.78p pd=3.52u as=0.78p ps=3.52u w=3u l=0.28u
X278 VSS VX.t37 VC.t43 VSS.t146 nfet_03v3 ad=0.78p pd=3.52u as=0.78p ps=3.52u w=3u l=0.28u
X279 VDD IBIAS2.t10 VBIASN2.t18 VDD.t30 pfet_03v3 ad=0.52p pd=2.52u as=0.52p ps=2.52u w=2u l=1u
X280 VDD IBIAS3.t149 OUTo.t105 VDD.t272 pfet_03v3 ad=0.78p pd=3.52u as=0.78p ps=3.52u w=3u l=0.28u
X281 VSS OUT.t60 OUTo.t7 VSS.t17 nfet_03v3 ad=0.78p pd=3.52u as=0.78p ps=3.52u w=3u l=0.28u
X282 IBIAS3 IBIAS3.t28 VDD.t271 VDD.t217 pfet_03v3 ad=0.78p pd=3.52u as=0.78p ps=3.52u w=3u l=0.28u
X283 VSS OUT.t61 OUTo.t8 VSS.t1 nfet_03v3 ad=0.78p pd=3.52u as=0.78p ps=3.52u w=3u l=0.28u
X284 VD VX.t38 VSS.t228 VSS.t144 nfet_03v3 ad=0.78p pd=3.52u as=0.78p ps=3.52u w=3u l=0.28u
X285 VDD IBIAS3.t151 OUTo.t104 VDD.t148 pfet_03v3 ad=0.78p pd=3.52u as=0.78p ps=3.52u w=3u l=0.28u
X286 VDD IBIAS3.t152 OUTo.t103 VDD.t195 pfet_03v3 ad=0.78p pd=3.52u as=0.78p ps=3.52u w=3u l=0.28u
X287 VP IBIAS.t27 VDD.t424 VDD.t395 pfet_03v3 ad=0.78p pd=3.52u as=0.78p ps=3.52u w=3u l=0.56u
X288 VP IBIAS.t28 VDD.t425 VDD.t39 pfet_03v3 ad=0.78p pd=3.52u as=0.78p ps=3.52u w=3u l=0.56u
X289 VDD IBIAS3.t153 OUTo.t102 VDD.t179 pfet_03v3 ad=0.78p pd=3.52u as=0.78p ps=3.52u w=3u l=0.28u
X290 VX VBS3.t17 VC.t55 VSS.t218 nfet_03v3 ad=0.78p pd=3.52u as=1.32p ps=6.88u w=3u l=0.28u
X291 VD.t14 VD.t13 VD.t14 VDD.t392 pfet_03v3 ad=1.32p pd=6.88u as=0 ps=0 w=3u l=0.28u
X292 IBIAS3 VBIASN2.t35 VSS.t83 VSS.t78 nfet_03v3 ad=0.52p pd=2.52u as=0.52p ps=2.52u w=2u l=1u
X293 VC VINN.t5 VP.t14 VDD.t9 pfet_03v3 ad=0.78p pd=3.52u as=0.78p ps=3.52u w=3u l=0.28u
X294 OUTo IBIAS3.t154 VDD.t264 VDD.t193 pfet_03v3 ad=0.78p pd=3.52u as=0.78p ps=3.52u w=3u l=0.28u
X295 OUTo IBIAS3.t155 VDD.t263 VDD.t193 pfet_03v3 ad=0.78p pd=3.52u as=0.78p ps=3.52u w=3u l=0.28u
X296 OUTo OUT.t62 VSS.t22 VSS.t8 nfet_03v3 ad=0.78p pd=3.52u as=0.78p ps=3.52u w=3u l=0.28u
X297 OUTo IBIAS3.t156 VDD.t262 VDD.t171 pfet_03v3 ad=0.78p pd=3.52u as=0.78p ps=3.52u w=3u l=0.28u
X298 VP IBIAS.t29 VDD.t426 VDD.t39 pfet_03v3 ad=0.78p pd=3.52u as=0.78p ps=3.52u w=3u l=0.56u
X299 VSS.t168 VSS.t167 VSS.t168 VSS.t158 nfet_03v3 ad=0.78p pd=3.52u as=0 ps=0 w=3u l=0.28u
X300 VSS VX.t39 VD.t44 VSS.t141 nfet_03v3 ad=0.78p pd=3.52u as=0.78p ps=3.52u w=3u l=0.28u
X301 VSS OUT.t63 OUTo.t10 VSS.t23 nfet_03v3 ad=0.78p pd=3.52u as=0.78p ps=3.52u w=3u l=0.28u
X302 VB IBIAS.t30 VDD.t427 VDD.t411 pfet_03v3 ad=0.78p pd=3.52u as=0.78p ps=3.52u w=3u l=0.56u
X303 VDD IBIAS3.t157 OUTo.t101 VDD.t148 pfet_03v3 ad=0.78p pd=3.52u as=0.78p ps=3.52u w=3u l=0.28u
X304 VX.t7 VX.t6 VX.t7 VSS.t70 nfet_03v3 ad=0.78p pd=3.52u as=0 ps=0 w=3u l=0.28u
X305 VC VINN.t6 VP.t15 VDD.t19 pfet_03v3 ad=0.78p pd=3.52u as=0.78p ps=3.52u w=3u l=0.28u
X306 OUTo IBIAS3.t158 VDD.t259 VDD.t171 pfet_03v3 ad=0.78p pd=3.52u as=0.78p ps=3.52u w=3u l=0.28u
X307 VC VINN.t7 VP.t0 VDD.t19 pfet_03v3 ad=0.78p pd=3.52u as=0.78p ps=3.52u w=3u l=0.28u
X308 VP VINN.t8 VC.t29 VDD.t14 pfet_03v3 ad=0.78p pd=3.52u as=0.78p ps=3.52u w=3u l=0.28u
X309 VSS VBIASN2.t36 IBIAS3.t3 VSS.t80 nfet_03v3 ad=0.52p pd=2.52u as=0.52p ps=2.52u w=2u l=1u
X310 VDD IBIAS3.t159 OUTo.t100 VDD.t179 pfet_03v3 ad=0.78p pd=3.52u as=0.78p ps=3.52u w=3u l=0.28u
X311 OUTo IBIAS3.t160 VDD.t256 VDD.t165 pfet_03v3 ad=0.78p pd=3.52u as=0.78p ps=3.52u w=3u l=0.28u
X312 VSS.t166 VSS.t165 VSS.t166 VSS.t152 nfet_03v3 ad=1.32p pd=6.88u as=0 ps=0 w=3u l=0.28u
X313 VDD.t71 VDD.t70 VDD.t71 VDD.t65 pfet_03v3 ad=1.32p pd=6.88u as=0 ps=0 w=3u l=0.28u
X314 VDD.t69 VDD.t67 VDD.t69 VDD.t68 pfet_03v3 ad=0.88p pd=4.88u as=0 ps=0 w=2u l=1u
X315 VBIASN2 IBIAS2.t11 VDD.t3 VDD.t1 pfet_03v3 ad=0.52p pd=2.52u as=0.88p ps=4.88u w=2u l=1u
X316 VDD IBIAS3.t161 OUTo.t99 VDD.t141 pfet_03v3 ad=0.78p pd=3.52u as=0.78p ps=3.52u w=3u l=0.28u
X317 VSS.t164 VSS.t163 VSS.t164 VSS.t155 nfet_03v3 ad=0.88p pd=4.88u as=0 ps=0 w=2u l=1u
X318 VP VINN.t9 VC.t30 VDD.t20 pfet_03v3 ad=0.78p pd=3.52u as=0.78p ps=3.52u w=3u l=0.28u
X319 VP VINN.t10 VC.t31 VDD.t20 pfet_03v3 ad=0.78p pd=3.52u as=0.78p ps=3.52u w=3u l=0.28u
X320 OUTo OUT.t64 VSS.t26 VSS.t4 nfet_03v3 ad=0.78p pd=3.52u as=0.78p ps=3.52u w=3u l=0.28u