* NGSPICE file created from MUX_1x8_flat.ext - technology: gf180mcuC

.subckt MUX_1x8_flat S0 A6 S1 A3 A7 A2 A0 A5 A1 A4 ENA Vout S2 VSS VDD
X0 TG_magic_5.A a_3874_308.t6 TG_GATE_SWITCH_magic_7.B.t61 VDD.t297 pfet_03v3 ad=0.26p pd=1.52u as=0.26p ps=1.52u w=1u l=0.28u
X1 TG_GATE_SWITCH_magic_1.B a_n4297_n4860.t6 A3.t23 VDD.t2 pfet_03v3 ad=0.26p pd=1.52u as=0.26p ps=1.52u w=1u l=0.28u
X2 TG_magic_0.A TG_magic_1.CLK TG_GATE_SWITCH_magic_0.B.t34 VSS.t94 nfet_03v3 ad=0.26p pd=1.52u as=0.26p ps=1.52u w=1u l=0.28u
X3 Vout INVERTER_MUX_1.OUT.t16 TG_magic_0.B.t36 VSS.t138 nfet_03v3 ad=0.26p pd=1.52u as=0.26p ps=1.52u w=1u l=0.28u
X4 INVERTER_MUX_1.OUT S2.t0 VSS.t185 VSS.t35 nfet_03v3 ad=0.13p pd=1.02u as=0.13p ps=1.02u w=0.5u l=0.28u
X5 A5 a_n4297_n7438.t6 TG_GATE_SWITCH_magic_2.B.t23 VDD.t186 pfet_03v3 ad=0.26p pd=1.52u as=0.26p ps=1.52u w=1u l=0.28u
X6 VSS S1.t0 TG_magic_7.CLK VSS.t16 nfet_03v3 ad=0.13p pd=1.02u as=0.13p ps=1.02u w=0.5u l=0.28u
X7 TG_GATE_SWITCH_magic_2.B a_n4701_n7438# A5.t35 VSS.t209 nfet_03v3 ad=0.26p pd=1.52u as=0.26p ps=1.52u w=1u l=0.28u
X8 TG_GATE_SWITCH_magic_2.B a_n4297_n7438.t7 A5.t22 VDD.t176 pfet_03v3 ad=0.26p pd=1.52u as=0.44p ps=2.88u w=1u l=0.28u
X9 VSS S2.t1 INVERTER_MUX_1.OUT.t12 VSS.t186 nfet_03v3 ad=0.13p pd=1.02u as=0.13p ps=1.02u w=0.5u l=0.28u
X10 TG_GATE_SWITCH_magic_6.B a_n2298_n2271# A4.t20 VSS.t41 nfet_03v3 ad=0.26p pd=1.52u as=0.44p ps=2.88u w=1u l=0.28u
X11 TG_magic_0.B a_2061_n2270.t6 TG_magic_0.A.t77 VDD.t13 pfet_03v3 ad=0.26p pd=1.52u as=0.26p ps=1.52u w=1u l=0.28u
X12 TG_GATE_SWITCH_magic_3.B a_5684_1104.t6 TG_magic_5.A.t53 VDD.t238 pfet_03v3 ad=0.44p pd=2.88u as=0.26p ps=1.52u w=1u l=0.28u
X13 TG_magic_0.B a_3817_n991.t6 TG_magic_5.A.t70 VDD.t63 pfet_03v3 ad=0.26p pd=1.52u as=0.44p ps=2.88u w=1u l=0.28u
X14 TG_magic_7.B S1.t1 TG_magic_4.B.t100 VSS.t159 nfet_03v3 ad=0.26p pd=1.52u as=0.26p ps=1.52u w=1u l=0.28u
X15 VDD S0.t0 a_5684_n6152.t3 VDD.t20 pfet_03v3 ad=0.44p pd=2.88u as=0.44p ps=2.88u w=1u l=0.28u
X16 TG_GATE_SWITCH_magic_2.B a_n4297_n7438.t8 A5.t21 VDD.t245 pfet_03v3 ad=0.26p pd=1.52u as=0.26p ps=1.52u w=1u l=0.28u
X17 TG_magic_0.A a_301_308.t6 TG_GATE_SWITCH_magic_6.B.t30 VDD.t83 pfet_03v3 ad=0.26p pd=1.52u as=0.26p ps=1.52u w=1u l=0.28u
X18 A6 a_n4297_300.t6 TG_GATE_SWITCH_magic_3.B.t8 VDD.t77 pfet_03v3 ad=0.44p pd=2.88u as=0.26p ps=1.52u w=1u l=0.28u
X19 TG_GATE_SWITCH_magic_0.B TG_magic_1.CLK TG_magic_0.A.t56 VSS.t93 nfet_03v3 ad=0.44p pd=2.88u as=0.26p ps=1.52u w=1u l=0.28u
X20 TG_GATE_SWITCH_magic_1.B TG_magic_1.CLK TG_magic_4.B.t62 VSS.t74 nfet_03v3 ad=0.26p pd=1.52u as=0.26p ps=1.52u w=1u l=0.28u
X21 a_n2298_307# ENA.t0 VDD.t89 VDD.t88 pfet_03v3 ad=0.44p pd=2.88u as=0.44p ps=2.88u w=1u l=0.28u
X22 TG_magic_4.B a_2061_n4852.t6 TG_magic_7.B.t103 VDD.t15 pfet_03v3 ad=0.26p pd=1.52u as=0.26p ps=1.52u w=1u l=0.28u
X23 Vout S2.t2 TG_magic_7.B.t78 VSS.t23 nfet_03v3 ad=0.26p pd=1.52u as=0.26p ps=1.52u w=1u l=0.28u
X24 TG_magic_5.A a_3874_308.t7 TG_GATE_SWITCH_magic_7.B.t60 VDD.t297 pfet_03v3 ad=0.26p pd=1.52u as=0.26p ps=1.52u w=1u l=0.28u
X25 TG_GATE_SWITCH_magic_1.B a_n4297_n4860.t7 A3.t22 VDD.t2 pfet_03v3 ad=0.26p pd=1.52u as=0.26p ps=1.52u w=1u l=0.28u
X26 TG_GATE_SWITCH_magic_1.B a_n4297_n4860.t8 A3.t21 VDD.t3 pfet_03v3 ad=0.26p pd=1.52u as=0.26p ps=1.52u w=1u l=0.28u
X27 TG_magic_7.B TG_magic_7.CLK TG_magic_2.B.t107 VSS.t225 nfet_03v3 ad=0.26p pd=1.52u as=0.26p ps=1.52u w=1u l=0.28u
X28 TG_GATE_SWITCH_magic_6.B a_n1894_n2271.t6 A4.t27 VDD.t10 pfet_03v3 ad=0.26p pd=1.52u as=0.26p ps=1.52u w=1u l=0.28u
X29 TG_GATE_SWITCH_magic_1.B a_2004_n6151.t6 TG_magic_4.B.t13 VDD.t46 pfet_03v3 ad=0.26p pd=1.52u as=0.26p ps=1.52u w=1u l=0.28u
X30 A5 a_n4701_n7438# TG_GATE_SWITCH_magic_2.B.t59 VSS.t208 nfet_03v3 ad=0.44p pd=2.88u as=0.26p ps=1.52u w=1u l=0.28u
X31 TG_magic_0.B TG_magic_7.CLK TG_magic_0.A.t107 VSS.t226 nfet_03v3 ad=0.26p pd=1.52u as=0.44p ps=2.88u w=1u l=0.28u
X32 TG_magic_5.A a_3874_308.t8 TG_GATE_SWITCH_magic_7.B.t59 VDD.t294 pfet_03v3 ad=0.26p pd=1.52u as=0.44p ps=2.88u w=1u l=0.28u
X33 TG_magic_7.B a_5741_n4853.t6 Vout.t51 VDD.t58 pfet_03v3 ad=0.26p pd=1.52u as=0.26p ps=1.52u w=1u l=0.28u
X34 TG_magic_4.B S0.t1 TG_GATE_SWITCH_magic_5.B.t16 VSS.t128 nfet_03v3 ad=0.26p pd=1.52u as=0.44p ps=2.88u w=1u l=0.28u
X35 TG_magic_0.A S0.t2 TG_GATE_SWITCH_magic_6.B.t27 VSS.t5 nfet_03v3 ad=0.26p pd=1.52u as=0.26p ps=1.52u w=1u l=0.28u
X36 A0 a_n4297_n2278.t6 TG_GATE_SWITCH_magic_0.B.t50 VDD.t18 pfet_03v3 ad=0.26p pd=1.52u as=0.26p ps=1.52u w=1u l=0.28u
X37 VSS TG_magic_1.CLK a_2004_n6151.t5 VSS.t101 nfet_03v3 ad=0.44p pd=2.88u as=0.44p ps=2.88u w=1u l=0.28u
X38 VDD S1.t3 a_3817_n991.t3 VDD.t177 pfet_03v3 ad=0.44p pd=2.88u as=0.44p ps=2.88u w=1u l=0.28u
X39 TG_GATE_SWITCH_magic_2.B a_5684_n6152.t6 TG_magic_2.B.t58 VDD.t287 pfet_03v3 ad=0.26p pd=1.52u as=0.26p ps=1.52u w=1u l=0.28u
X40 A7 a_n2298_n4853# TG_GATE_SWITCH_magic_5.B.t45 VSS.t146 nfet_03v3 ad=0.26p pd=1.52u as=0.26p ps=1.52u w=1u l=0.28u
X41 TG_magic_0.A a_301_308.t7 TG_GATE_SWITCH_magic_6.B.t23 VDD.t83 pfet_03v3 ad=0.26p pd=1.52u as=0.26p ps=1.52u w=1u l=0.28u
X42 VDD S2.t3 INVERTER_MUX_1.OUT.t13 VDD.t203 pfet_03v3 ad=0.26p pd=1.52u as=0.26p ps=1.52u w=1u l=0.28u
X43 A0 a_n4297_n2278.t7 TG_GATE_SWITCH_magic_0.B.t49 VDD.t19 pfet_03v3 ad=0.44p pd=2.88u as=0.26p ps=1.52u w=1u l=0.28u
X44 TG_magic_4.B a_301_n7430.t6 TG_GATE_SWITCH_magic_5.B.t71 VDD.t44 pfet_03v3 ad=0.26p pd=1.52u as=0.44p ps=2.88u w=1u l=0.28u
X45 VDD TG_magic_1.CLK a_2004_n6151.t3 VDD.t125 pfet_03v3 ad=0.44p pd=2.88u as=0.44p ps=2.88u w=1u l=0.28u
X46 A2 a_n1894_307.t6 TG_GATE_SWITCH_magic_7.B.t40 VDD.t106 pfet_03v3 ad=0.44p pd=2.88u as=0.26p ps=1.52u w=1u l=0.28u
X47 TG_GATE_SWITCH_magic_0.B a_2004_1105.t6 TG_magic_0.A.t14 VDD.t69 pfet_03v3 ad=0.26p pd=1.52u as=0.26p ps=1.52u w=1u l=0.28u
X48 TG_GATE_SWITCH_magic_6.B a_n1894_n2271.t7 A4.t28 VDD.t10 pfet_03v3 ad=0.26p pd=1.52u as=0.26p ps=1.52u w=1u l=0.28u
X49 Vout a_5741_n4853.t7 TG_magic_7.B.t107 VDD.t56 pfet_03v3 ad=0.26p pd=1.52u as=0.44p ps=2.88u w=1u l=0.28u
X50 TG_GATE_SWITCH_magic_3.B a_n4297_300.t7 A6.t34 VDD.t174 pfet_03v3 ad=0.26p pd=1.52u as=0.44p ps=2.88u w=1u l=0.28u
X51 TG_magic_0.A a_2061_n2270.t7 TG_magic_0.B.t55 VDD.t14 pfet_03v3 ad=0.44p pd=2.88u as=0.26p ps=1.52u w=1u l=0.28u
X52 TG_GATE_SWITCH_magic_3.B a_n4297_300.t8 A6.t33 VDD.t174 pfet_03v3 ad=0.26p pd=1.52u as=0.44p ps=2.88u w=1u l=0.28u
X53 TG_magic_5.A a_5684_1104.t7 TG_GATE_SWITCH_magic_3.B.t52 VDD.t234 pfet_03v3 ad=0.26p pd=1.52u as=0.26p ps=1.52u w=1u l=0.28u
X54 TG_magic_2.B TG_magic_1.CLK TG_GATE_SWITCH_magic_4.B.t20 VSS.t72 nfet_03v3 ad=0.26p pd=1.52u as=0.26p ps=1.52u w=1u l=0.28u
X55 TG_GATE_SWITCH_magic_6.B a_301_308.t8 TG_magic_0.A.t65 VDD.t79 pfet_03v3 ad=0.26p pd=1.52u as=0.26p ps=1.52u w=1u l=0.28u
X56 a_n4701_n4860# ENA.t1 VDD.t91 VDD.t90 pfet_03v3 ad=0.44p pd=2.88u as=0.44p ps=2.88u w=1u l=0.28u
X57 TG_GATE_SWITCH_magic_2.B a_n4701_n7438# A5.t33 VSS.t207 nfet_03v3 ad=0.26p pd=1.52u as=0.26p ps=1.52u w=1u l=0.28u
X58 TG_magic_2.B a_3874_n7430.t6 TG_GATE_SWITCH_magic_4.B.t0 VDD.t52 pfet_03v3 ad=0.26p pd=1.52u as=0.26p ps=1.52u w=1u l=0.28u
X59 TG_magic_7.B a_2061_n4852.t7 TG_magic_4.B.t72 VDD.t16 pfet_03v3 ad=0.26p pd=1.52u as=0.26p ps=1.52u w=1u l=0.28u
X60 TG_magic_5.A S1.t4 TG_magic_0.B.t37 VSS.t149 nfet_03v3 ad=0.44p pd=2.88u as=0.26p ps=1.52u w=1u l=0.28u
X61 Vout a_5741_n4853.t8 TG_magic_7.B.t104 VDD.t54 pfet_03v3 ad=0.26p pd=1.52u as=0.26p ps=1.52u w=1u l=0.28u
X62 TG_GATE_SWITCH_magic_2.B a_5684_n6152.t7 TG_magic_2.B.t57 VDD.t288 pfet_03v3 ad=0.44p pd=2.88u as=0.26p ps=1.52u w=1u l=0.28u
X63 TG_GATE_SWITCH_magic_0.B TG_magic_1.CLK TG_magic_0.A.t55 VSS.t89 nfet_03v3 ad=0.26p pd=1.52u as=0.26p ps=1.52u w=1u l=0.28u
X64 TG_magic_4.B a_2004_n6151.t7 TG_GATE_SWITCH_magic_1.B.t1 VDD.t47 pfet_03v3 ad=0.26p pd=1.52u as=0.26p ps=1.52u w=1u l=0.28u
X65 TG_magic_7.B a_3817_n4055.t6 TG_magic_2.B.t59 VDD.t65 pfet_03v3 ad=0.26p pd=1.52u as=0.26p ps=1.52u w=1u l=0.28u
X66 Vout a_5741_n4853.t9 TG_magic_7.B.t48 VDD.t57 pfet_03v3 ad=0.26p pd=1.52u as=0.26p ps=1.52u w=1u l=0.28u
X67 TG_magic_0.A a_301_308.t9 TG_GATE_SWITCH_magic_6.B.t2 VDD.t78 pfet_03v3 ad=0.26p pd=1.52u as=0.26p ps=1.52u w=1u l=0.28u
X68 Vout INVERTER_MUX_1.OUT.t17 TG_magic_0.B.t35 VSS.t184 nfet_03v3 ad=0.26p pd=1.52u as=0.44p ps=2.88u w=1u l=0.28u
X69 TG_GATE_SWITCH_magic_0.B a_n4297_n2278.t8 A0.t21 VDD.t2 pfet_03v3 ad=0.26p pd=1.52u as=0.26p ps=1.52u w=1u l=0.28u
X70 TG_GATE_SWITCH_magic_0.B a_n4297_n2278.t9 A0.t20 VDD.t3 pfet_03v3 ad=0.26p pd=1.52u as=0.26p ps=1.52u w=1u l=0.28u
X71 TG_magic_4.B a_2061_n4852.t8 TG_magic_7.B.t49 VDD.t12 pfet_03v3 ad=0.26p pd=1.52u as=0.26p ps=1.52u w=1u l=0.28u
X72 TG_GATE_SWITCH_magic_4.B TG_magic_1.CLK TG_magic_2.B.t68 VSS.t99 nfet_03v3 ad=0.26p pd=1.52u as=0.26p ps=1.52u w=1u l=0.28u
X73 TG_GATE_SWITCH_magic_3.B a_n4297_300.t9 A6.t32 VDD.t174 pfet_03v3 ad=0.26p pd=1.52u as=0.44p ps=2.88u w=1u l=0.28u
X74 TG_GATE_SWITCH_magic_6.B a_301_308.t10 TG_magic_0.A.t16 VDD.t79 pfet_03v3 ad=0.26p pd=1.52u as=0.26p ps=1.52u w=1u l=0.28u
X75 a_n4701_n4860# ENA.t2 VDD.t92 VDD.t90 pfet_03v3 ad=0.44p pd=2.88u as=0.44p ps=2.88u w=1u l=0.28u
X76 TG_GATE_SWITCH_magic_2.B S0.t3 TG_magic_2.B.t11 VSS.t6 nfet_03v3 ad=0.44p pd=2.88u as=0.26p ps=1.52u w=1u l=0.28u
X77 TG_magic_7.B a_5741_n4853.t10 Vout.t0 VDD.t0 pfet_03v3 ad=0.26p pd=1.52u as=0.26p ps=1.52u w=1u l=0.28u
X78 TG_GATE_SWITCH_magic_4.B a_3874_n7430.t7 TG_magic_2.B.t13 VDD.t53 pfet_03v3 ad=0.26p pd=1.52u as=0.26p ps=1.52u w=1u l=0.28u
X79 TG_magic_0.A TG_magic_1.CLK TG_GATE_SWITCH_magic_0.B.t33 VSS.t87 nfet_03v3 ad=0.26p pd=1.52u as=0.26p ps=1.52u w=1u l=0.28u
X80 A0 a_n4701_n2278# TG_GATE_SWITCH_magic_0.B.t16 VSS.t59 nfet_03v3 ad=0.26p pd=1.52u as=0.26p ps=1.52u w=1u l=0.28u
X81 TG_magic_5.A a_3817_n991.t7 TG_magic_0.B.t67 VDD.t66 pfet_03v3 ad=0.26p pd=1.52u as=0.26p ps=1.52u w=1u l=0.28u
X82 TG_magic_7.B a_2061_n4852.t9 TG_magic_4.B.t2 VDD.t16 pfet_03v3 ad=0.26p pd=1.52u as=0.26p ps=1.52u w=1u l=0.28u
X83 TG_magic_0.A a_2004_1105.t7 TG_GATE_SWITCH_magic_0.B.t0 VDD.t59 pfet_03v3 ad=0.26p pd=1.52u as=0.44p ps=2.88u w=1u l=0.28u
X84 TG_magic_4.B S0.t4 TG_GATE_SWITCH_magic_5.B.t15 VSS.t129 nfet_03v3 ad=0.26p pd=1.52u as=0.26p ps=1.52u w=1u l=0.28u
X85 A7 a_n1894_n4853.t6 TG_GATE_SWITCH_magic_5.B.t17 VDD.t39 pfet_03v3 ad=0.26p pd=1.52u as=0.26p ps=1.52u w=1u l=0.28u
X86 TG_GATE_SWITCH_magic_2.B a_5684_n6152.t8 TG_magic_2.B.t56 VDD.t288 pfet_03v3 ad=0.44p pd=2.88u as=0.26p ps=1.52u w=1u l=0.28u
X87 A7 a_n2298_n4853# TG_GATE_SWITCH_magic_5.B.t44 VSS.t143 nfet_03v3 ad=0.44p pd=2.88u as=0.26p ps=1.52u w=1u l=0.28u
X88 Vout a_5741_n4853.t11 TG_magic_7.B.t105 VDD.t57 pfet_03v3 ad=0.26p pd=1.52u as=0.26p ps=1.52u w=1u l=0.28u
X89 TG_magic_4.B a_301_n7430.t7 TG_GATE_SWITCH_magic_5.B.t31 VDD.t40 pfet_03v3 ad=0.26p pd=1.52u as=0.26p ps=1.52u w=1u l=0.28u
X90 TG_GATE_SWITCH_magic_0.B a_n4297_n2278.t10 A0.t19 VDD.t3 pfet_03v3 ad=0.26p pd=1.52u as=0.26p ps=1.52u w=1u l=0.28u
X91 TG_magic_0.A a_2061_n2270.t8 TG_magic_0.B.t61 VDD.t15 pfet_03v3 ad=0.26p pd=1.52u as=0.26p ps=1.52u w=1u l=0.28u
X92 TG_GATE_SWITCH_magic_1.B a_2004_n6151.t8 TG_magic_4.B.t15 VDD.t48 pfet_03v3 ad=0.44p pd=2.88u as=0.26p ps=1.52u w=1u l=0.28u
X93 A1 a_n1894_n7431.t6 TG_GATE_SWITCH_magic_4.B.t67 VDD.t85 pfet_03v3 ad=0.26p pd=1.52u as=0.26p ps=1.52u w=1u l=0.28u
X94 TG_GATE_SWITCH_magic_5.B a_n2298_n4853# A7.t18 VSS.t142 nfet_03v3 ad=0.26p pd=1.52u as=0.26p ps=1.52u w=1u l=0.28u
X95 Vout a_5741_n2271.t6 TG_magic_0.B.t46 VDD.t56 pfet_03v3 ad=0.26p pd=1.52u as=0.44p ps=2.88u w=1u l=0.28u
X96 TG_magic_5.A S0.t5 TG_GATE_SWITCH_magic_3.B.t23 VSS.t7 nfet_03v3 ad=0.26p pd=1.52u as=0.26p ps=1.52u w=1u l=0.28u
X97 TG_magic_0.B a_5741_n2271.t7 Vout.t58 VDD.t58 pfet_03v3 ad=0.26p pd=1.52u as=0.26p ps=1.52u w=1u l=0.28u
X98 TG_magic_2.B a_3817_n4055.t7 TG_magic_7.B.t35 VDD.t67 pfet_03v3 ad=0.44p pd=2.88u as=0.26p ps=1.52u w=1u l=0.28u
X99 TG_magic_5.A TG_magic_1.CLK TG_GATE_SWITCH_magic_7.B.t20 VSS.t88 nfet_03v3 ad=0.26p pd=1.52u as=0.44p ps=2.88u w=1u l=0.28u
X100 TG_magic_2.B TG_magic_1.CLK TG_GATE_SWITCH_magic_4.B.t18 VSS.t98 nfet_03v3 ad=0.26p pd=1.52u as=0.26p ps=1.52u w=1u l=0.28u
X101 VSS TG_magic_1.CLK a_2004_1105.t5 VSS.t84 nfet_03v3 ad=0.44p pd=2.88u as=0.44p ps=2.88u w=1u l=0.28u
X102 A7 a_n1894_n4853.t7 TG_GATE_SWITCH_magic_5.B.t29 VDD.t39 pfet_03v3 ad=0.26p pd=1.52u as=0.26p ps=1.52u w=1u l=0.28u
X103 TG_magic_2.B TG_magic_7.CLK TG_magic_7.B.t84 VSS.t224 nfet_03v3 ad=0.26p pd=1.52u as=0.26p ps=1.52u w=1u l=0.28u
X104 A3 a_n4701_n4860# TG_GATE_SWITCH_magic_1.B.t71 VSS.t204 nfet_03v3 ad=0.26p pd=1.52u as=0.26p ps=1.52u w=1u l=0.28u
X105 TG_magic_5.A a_5684_1104.t8 TG_GATE_SWITCH_magic_3.B.t51 VDD.t239 pfet_03v3 ad=0.26p pd=1.52u as=0.44p ps=2.88u w=1u l=0.28u
X106 TG_GATE_SWITCH_magic_6.B a_301_308.t11 TG_magic_0.A.t17 VDD.t80 pfet_03v3 ad=0.26p pd=1.52u as=0.26p ps=1.52u w=1u l=0.28u
X107 VSS S1.t7 a_3817_n991.t5 VSS.t70 nfet_03v3 ad=0.44p pd=2.88u as=0.44p ps=2.88u w=1u l=0.28u
X108 TG_magic_2.B a_3874_n7430.t8 TG_GATE_SWITCH_magic_4.B.t2 VDD.t68 pfet_03v3 ad=0.26p pd=1.52u as=0.26p ps=1.52u w=1u l=0.28u
X109 a_n4701_300# ENA.t3 VSS.t50 VSS.t49 nfet_03v3 ad=0.44p pd=2.88u as=0.44p ps=2.88u w=1u l=0.28u
X110 a_n4701_n7438# ENA.t4 VSS.t52 VSS.t51 nfet_03v3 ad=0.44p pd=2.88u as=0.44p ps=2.88u w=1u l=0.28u
X111 TG_magic_4.B a_2004_n6151.t9 TG_GATE_SWITCH_magic_1.B.t3 VDD.t47 pfet_03v3 ad=0.26p pd=1.52u as=0.26p ps=1.52u w=1u l=0.28u
X112 TG_magic_2.B S0.t8 TG_GATE_SWITCH_magic_2.B.t7 VSS.t8 nfet_03v3 ad=0.26p pd=1.52u as=0.26p ps=1.52u w=1u l=0.28u
X113 TG_GATE_SWITCH_magic_5.B S0.t9 TG_magic_4.B.t66 VSS.t131 nfet_03v3 ad=0.44p pd=2.88u as=0.26p ps=1.52u w=1u l=0.28u
X114 TG_GATE_SWITCH_magic_7.B TG_magic_1.CLK TG_magic_5.A.t14 VSS.t82 nfet_03v3 ad=0.26p pd=1.52u as=0.26p ps=1.52u w=1u l=0.28u
X115 TG_GATE_SWITCH_magic_6.B a_n2298_n2271# A4.t19 VSS.t45 nfet_03v3 ad=0.26p pd=1.52u as=0.26p ps=1.52u w=1u l=0.28u
X116 TG_magic_2.B a_5684_n6152.t9 TG_GATE_SWITCH_magic_2.B.t39 VDD.t289 pfet_03v3 ad=0.26p pd=1.52u as=0.44p ps=2.88u w=1u l=0.28u
X117 TG_GATE_SWITCH_magic_0.B a_n4701_n2278# A0.t34 VSS.t58 nfet_03v3 ad=0.26p pd=1.52u as=0.26p ps=1.52u w=1u l=0.28u
X118 Vout a_5741_n2271.t8 TG_magic_0.B.t99 VDD.t56 pfet_03v3 ad=0.26p pd=1.52u as=0.44p ps=2.88u w=1u l=0.28u
X119 TG_magic_7.B a_3817_n4055.t8 TG_magic_2.B.t61 VDD.t64 pfet_03v3 ad=0.26p pd=1.52u as=0.26p ps=1.52u w=1u l=0.28u
X120 A6 a_n4701_300# TG_GATE_SWITCH_magic_3.B.t14 VSS.t61 nfet_03v3 ad=0.26p pd=1.52u as=0.26p ps=1.52u w=1u l=0.28u
X121 TG_magic_2.B a_5684_n6152.t10 TG_GATE_SWITCH_magic_2.B.t40 VDD.t290 pfet_03v3 ad=0.26p pd=1.52u as=0.26p ps=1.52u w=1u l=0.28u
X122 TG_GATE_SWITCH_magic_5.B a_301_n7430.t8 TG_magic_4.B.t69 VDD.t45 pfet_03v3 ad=0.44p pd=2.88u as=0.26p ps=1.52u w=1u l=0.28u
X123 TG_magic_0.B INVERTER_MUX_1.OUT.t18 Vout.t40 VSS.t10 nfet_03v3 ad=0.44p pd=2.88u as=0.26p ps=1.52u w=1u l=0.28u
X124 A1 a_n1894_n7431.t7 TG_GATE_SWITCH_magic_4.B.t45 VDD.t246 pfet_03v3 ad=0.26p pd=1.52u as=0.26p ps=1.52u w=1u l=0.28u
X125 a_n4701_n2278# ENA.t5 VDD.t93 VDD.t90 pfet_03v3 ad=0.44p pd=2.88u as=0.44p ps=2.88u w=1u l=0.28u
X126 TG_GATE_SWITCH_magic_4.B a_n1894_n7431.t8 A1.t33 VDD.t87 pfet_03v3 ad=0.26p pd=1.52u as=0.44p ps=2.88u w=1u l=0.28u
X127 TG_magic_5.A a_5684_1104.t9 TG_GATE_SWITCH_magic_3.B.t50 VDD.t239 pfet_03v3 ad=0.26p pd=1.52u as=0.44p ps=2.88u w=1u l=0.28u
X128 TG_magic_0.B a_5741_n2271.t9 Vout.t60 VDD.t0 pfet_03v3 ad=0.26p pd=1.52u as=0.26p ps=1.52u w=1u l=0.28u
X129 Vout a_5741_n2271.t10 TG_magic_0.B.t101 VDD.t54 pfet_03v3 ad=0.26p pd=1.52u as=0.26p ps=1.52u w=1u l=0.28u
X130 TG_magic_0.B a_2061_n2270.t9 TG_magic_0.A.t67 VDD.t16 pfet_03v3 ad=0.26p pd=1.52u as=0.26p ps=1.52u w=1u l=0.28u
X131 TG_magic_0.B a_2061_n2270.t10 TG_magic_0.A.t0 VDD.t11 pfet_03v3 ad=0.26p pd=1.52u as=0.44p ps=2.88u w=1u l=0.28u
X132 TG_magic_4.B TG_magic_1.CLK TG_GATE_SWITCH_magic_1.B.t35 VSS.t97 nfet_03v3 ad=0.26p pd=1.52u as=0.44p ps=2.88u w=1u l=0.28u
X133 TG_magic_4.B S0.t10 TG_GATE_SWITCH_magic_5.B.t13 VSS.t114 nfet_03v3 ad=0.26p pd=1.52u as=0.26p ps=1.52u w=1u l=0.28u
X134 TG_GATE_SWITCH_magic_0.B a_2004_1105.t8 TG_magic_0.A.t37 VDD.t102 pfet_03v3 ad=0.44p pd=2.88u as=0.26p ps=1.52u w=1u l=0.28u
X135 a_n4701_n2278# ENA.t6 VSS.t53 VSS.t49 nfet_03v3 ad=0.44p pd=2.88u as=0.44p ps=2.88u w=1u l=0.28u
X136 A4 a_n2298_n2271# TG_GATE_SWITCH_magic_6.B.t56 VSS.t42 nfet_03v3 ad=0.26p pd=1.52u as=0.26p ps=1.52u w=1u l=0.28u
X137 TG_magic_0.B a_3817_n991.t8 TG_magic_5.A.t52 VDD.t65 pfet_03v3 ad=0.26p pd=1.52u as=0.26p ps=1.52u w=1u l=0.28u
X138 Vout a_5741_n2271.t11 TG_magic_0.B.t102 VDD.t57 pfet_03v3 ad=0.26p pd=1.52u as=0.26p ps=1.52u w=1u l=0.28u
X139 A1 a_n2298_n7431# TG_GATE_SWITCH_magic_4.B.t31 VSS.t146 nfet_03v3 ad=0.26p pd=1.52u as=0.26p ps=1.52u w=1u l=0.28u
X140 TG_magic_7.B S1.t8 TG_magic_4.B.t99 VSS.t152 nfet_03v3 ad=0.26p pd=1.52u as=0.26p ps=1.52u w=1u l=0.28u
X141 TG_magic_0.A a_2061_n2270.t11 TG_magic_0.B.t1 VDD.t12 pfet_03v3 ad=0.26p pd=1.52u as=0.26p ps=1.52u w=1u l=0.28u
X142 TG_magic_7.B TG_magic_7.CLK TG_magic_2.B.t105 VSS.t95 nfet_03v3 ad=0.26p pd=1.52u as=0.44p ps=2.88u w=1u l=0.28u
X143 TG_magic_4.B a_2004_n6151.t10 TG_GATE_SWITCH_magic_1.B.t4 VDD.t49 pfet_03v3 ad=0.26p pd=1.52u as=0.44p ps=2.88u w=1u l=0.28u
X144 TG_magic_4.B a_301_n7430.t9 TG_GATE_SWITCH_magic_5.B.t33 VDD.t42 pfet_03v3 ad=0.26p pd=1.52u as=0.26p ps=1.52u w=1u l=0.28u
X145 TG_GATE_SWITCH_magic_1.B a_2004_n6151.t11 TG_magic_4.B.t18 VDD.t48 pfet_03v3 ad=0.44p pd=2.88u as=0.26p ps=1.52u w=1u l=0.28u
X146 A1 a_n1894_n7431.t9 TG_GATE_SWITCH_magic_4.B.t68 VDD.t246 pfet_03v3 ad=0.26p pd=1.52u as=0.26p ps=1.52u w=1u l=0.28u
X147 TG_magic_0.B a_5741_n2271.t12 Vout.t63 VDD.t0 pfet_03v3 ad=0.26p pd=1.52u as=0.26p ps=1.52u w=1u l=0.28u
X148 a_n2298_n4853# ENA.t7 VSS.t55 VSS.t54 nfet_03v3 ad=0.44p pd=2.88u as=0.44p ps=2.88u w=1u l=0.28u
X149 TG_magic_1.CLK S0.t12 VDD.t163 VDD.t23 pfet_03v3 ad=0.26p pd=1.52u as=0.26p ps=1.52u w=1u l=0.28u
X150 A4 a_n1894_n2271.t8 TG_GATE_SWITCH_magic_6.B.t61 VDD.t39 pfet_03v3 ad=0.26p pd=1.52u as=0.26p ps=1.52u w=1u l=0.28u
X151 TG_GATE_SWITCH_magic_7.B a_n1894_307.t7 A2.t22 VDD.t60 pfet_03v3 ad=0.26p pd=1.52u as=0.44p ps=2.88u w=1u l=0.28u
X152 VSS S1.t9 TG_magic_7.CLK VSS.t16 nfet_03v3 ad=0.13p pd=1.02u as=0.13p ps=1.02u w=0.5u l=0.28u
X153 Vout INVERTER_MUX_1.OUT.t19 TG_magic_0.B.t34 VSS.t0 nfet_03v3 ad=0.26p pd=1.52u as=0.26p ps=1.52u w=1u l=0.28u
X154 TG_GATE_SWITCH_magic_5.B a_n1894_n4853.t8 A7.t8 VDD.t10 pfet_03v3 ad=0.26p pd=1.52u as=0.26p ps=1.52u w=1u l=0.28u
X155 TG_GATE_SWITCH_magic_0.B TG_magic_1.CLK TG_magic_0.A.t53 VSS.t81 nfet_03v3 ad=0.26p pd=1.52u as=0.26p ps=1.52u w=1u l=0.28u
X156 A1 a_n2298_n7431# TG_GATE_SWITCH_magic_4.B.t30 VSS.t143 nfet_03v3 ad=0.44p pd=2.88u as=0.26p ps=1.52u w=1u l=0.28u
X157 TG_magic_5.A a_3817_n991.t9 TG_magic_0.B.t53 VDD.t67 pfet_03v3 ad=0.44p pd=2.88u as=0.26p ps=1.52u w=1u l=0.28u
X158 TG_GATE_SWITCH_magic_3.B a_n4701_300# A6.t10 VSS.t58 nfet_03v3 ad=0.26p pd=1.52u as=0.26p ps=1.52u w=1u l=0.28u
X159 A6 a_n4297_300.t10 TG_GATE_SWITCH_magic_3.B.t28 VDD.t228 pfet_03v3 ad=0.26p pd=1.52u as=0.26p ps=1.52u w=1u l=0.28u
X160 TG_GATE_SWITCH_magic_4.B a_n2298_n7431# A1.t9 VSS.t142 nfet_03v3 ad=0.26p pd=1.52u as=0.26p ps=1.52u w=1u l=0.28u
X161 TG_magic_5.A S0.t13 TG_GATE_SWITCH_magic_3.B.t24 VSS.t15 nfet_03v3 ad=0.26p pd=1.52u as=0.26p ps=1.52u w=1u l=0.28u
X162 TG_magic_5.A TG_magic_1.CLK TG_GATE_SWITCH_magic_7.B.t19 VSS.t80 nfet_03v3 ad=0.26p pd=1.52u as=0.26p ps=1.52u w=1u l=0.28u
X163 TG_magic_0.A TG_magic_7.CLK TG_magic_0.B.t96 VSS.t213 nfet_03v3 ad=0.26p pd=1.52u as=0.26p ps=1.52u w=1u l=0.28u
X164 TG_magic_5.A a_3874_308.t9 TG_GATE_SWITCH_magic_7.B.t58 VDD.t298 pfet_03v3 ad=0.26p pd=1.52u as=0.26p ps=1.52u w=1u l=0.28u
X165 A7 a_n1894_n4853.t9 TG_GATE_SWITCH_magic_5.B.t28 VDD.t8 pfet_03v3 ad=0.44p pd=2.88u as=0.26p ps=1.52u w=1u l=0.28u
X166 VSS TG_magic_7.CLK a_3817_n4055.t5 VSS.t69 nfet_03v3 ad=0.44p pd=2.88u as=0.44p ps=2.88u w=1u l=0.28u
X167 TG_magic_7.B a_3817_n4055.t9 TG_magic_2.B.t62 VDD.t63 pfet_03v3 ad=0.26p pd=1.52u as=0.44p ps=2.88u w=1u l=0.28u
X168 TG_magic_7.B a_2061_n4852.t10 TG_magic_4.B.t24 VDD.t13 pfet_03v3 ad=0.26p pd=1.52u as=0.26p ps=1.52u w=1u l=0.28u
X169 TG_magic_0.B a_3817_n991.t10 TG_magic_5.A.t50 VDD.t64 pfet_03v3 ad=0.26p pd=1.52u as=0.26p ps=1.52u w=1u l=0.28u
X170 TG_GATE_SWITCH_magic_6.B S0.t14 TG_magic_0.A.t62 VSS.t19 nfet_03v3 ad=0.26p pd=1.52u as=0.26p ps=1.52u w=1u l=0.28u
X171 TG_GATE_SWITCH_magic_5.B a_n1894_n4853.t10 A7.t0 VDD.t7 pfet_03v3 ad=0.26p pd=1.52u as=0.26p ps=1.52u w=1u l=0.28u
X172 VSS S0.t15 a_5684_1104.t2 VSS.t10 nfet_03v3 ad=0.44p pd=2.88u as=0.44p ps=2.88u w=1u l=0.28u
X173 A5 a_n4297_n7438.t9 TG_GATE_SWITCH_magic_2.B.t22 VDD.t186 pfet_03v3 ad=0.26p pd=1.52u as=0.26p ps=1.52u w=1u l=0.28u
X174 TG_GATE_SWITCH_magic_2.B S0.t16 TG_magic_2.B.t9 VSS.t20 nfet_03v3 ad=0.26p pd=1.52u as=0.26p ps=1.52u w=1u l=0.28u
X175 TG_magic_2.B a_3817_n4055.t10 TG_magic_7.B.t2 VDD.t62 pfet_03v3 ad=0.26p pd=1.52u as=0.26p ps=1.52u w=1u l=0.28u
X176 TG_GATE_SWITCH_magic_3.B a_5684_1104.t10 TG_magic_5.A.t57 VDD.t238 pfet_03v3 ad=0.44p pd=2.88u as=0.26p ps=1.52u w=1u l=0.28u
X177 TG_GATE_SWITCH_magic_0.B a_2004_1105.t9 TG_magic_0.A.t38 VDD.t103 pfet_03v3 ad=0.26p pd=1.52u as=0.26p ps=1.52u w=1u l=0.28u
X178 TG_magic_0.A a_301_308.t12 TG_GATE_SWITCH_magic_6.B.t5 VDD.t81 pfet_03v3 ad=0.26p pd=1.52u as=0.44p ps=2.88u w=1u l=0.28u
X179 TG_GATE_SWITCH_magic_4.B a_n1894_n7431.t10 A1.t31 VDD.t299 pfet_03v3 ad=0.26p pd=1.52u as=0.26p ps=1.52u w=1u l=0.28u
X180 TG_magic_7.B a_2061_n4852.t11 TG_magic_4.B.t25 VDD.t13 pfet_03v3 ad=0.26p pd=1.52u as=0.26p ps=1.52u w=1u l=0.28u
X181 A3 a_n4297_n4860.t9 TG_GATE_SWITCH_magic_1.B.t56 VDD.t1 pfet_03v3 ad=0.26p pd=1.52u as=0.26p ps=1.52u w=1u l=0.28u
X182 a_n2298_307# ENA.t8 VDD.t94 VDD.t88 pfet_03v3 ad=0.44p pd=2.88u as=0.44p ps=2.88u w=1u l=0.28u
X183 TG_magic_7.B a_3817_n4055.t11 TG_magic_2.B.t15 VDD.t63 pfet_03v3 ad=0.26p pd=1.52u as=0.44p ps=2.88u w=1u l=0.28u
X184 VSS S2.t4 INVERTER_MUX_1.OUT.t14 VSS.t186 nfet_03v3 ad=0.13p pd=1.02u as=0.13p ps=1.02u w=0.5u l=0.28u
X185 TG_GATE_SWITCH_magic_3.B a_n4297_300.t11 A6.t30 VDD.t171 pfet_03v3 ad=0.26p pd=1.52u as=0.26p ps=1.52u w=1u l=0.28u
X186 A5 a_n4701_n7438# TG_GATE_SWITCH_magic_2.B.t58 VSS.t208 nfet_03v3 ad=0.44p pd=2.88u as=0.26p ps=1.52u w=1u l=0.28u
X187 A0 a_n4701_n2278# TG_GATE_SWITCH_magic_0.B.t15 VSS.t63 nfet_03v3 ad=0.44p pd=2.88u as=0.26p ps=1.52u w=1u l=0.28u
X188 A5 a_n4297_n7438.t10 TG_GATE_SWITCH_magic_2.B.t21 VDD.t186 pfet_03v3 ad=0.26p pd=1.52u as=0.26p ps=1.52u w=1u l=0.28u
X189 TG_magic_0.B TG_magic_7.CLK TG_magic_0.A.t106 VSS.t226 nfet_03v3 ad=0.26p pd=1.52u as=0.44p ps=2.88u w=1u l=0.28u
X190 TG_magic_4.B S1.t10 TG_magic_7.B.t100 VSS.t155 nfet_03v3 ad=0.26p pd=1.52u as=0.26p ps=1.52u w=1u l=0.28u
X191 TG_GATE_SWITCH_magic_7.B a_3874_308.t10 TG_magic_5.A.t103 VDD.t296 pfet_03v3 ad=0.26p pd=1.52u as=0.26p ps=1.52u w=1u l=0.28u
X192 A5 a_n4297_n7438.t11 TG_GATE_SWITCH_magic_2.B.t20 VDD.t240 pfet_03v3 ad=0.44p pd=2.88u as=0.26p ps=1.52u w=1u l=0.28u
X193 TG_magic_7.B S2.t5 Vout.t54 VSS.t29 nfet_03v3 ad=0.44p pd=2.88u as=0.26p ps=1.52u w=1u l=0.28u
X194 TG_GATE_SWITCH_magic_1.B a_n4701_n4860# A3.t33 VSS.t209 nfet_03v3 ad=0.26p pd=1.52u as=0.26p ps=1.52u w=1u l=0.28u
X195 VSS TG_magic_1.CLK a_2004_n6151.t4 VSS.t101 nfet_03v3 ad=0.44p pd=2.88u as=0.44p ps=2.88u w=1u l=0.28u
X196 VDD TG_magic_1.CLK a_2004_1105.t3 VDD.t122 pfet_03v3 ad=0.44p pd=2.88u as=0.44p ps=2.88u w=1u l=0.28u
X197 TG_GATE_SWITCH_magic_0.B a_2004_1105.t10 TG_magic_0.A.t39 VDD.t103 pfet_03v3 ad=0.26p pd=1.52u as=0.26p ps=1.52u w=1u l=0.28u
X198 A3 a_n4297_n4860.t10 TG_GATE_SWITCH_magic_1.B.t55 VDD.t1 pfet_03v3 ad=0.26p pd=1.52u as=0.26p ps=1.52u w=1u l=0.28u
X199 A3 a_n4297_n4860.t11 TG_GATE_SWITCH_magic_1.B.t54 VDD.t19 pfet_03v3 ad=0.44p pd=2.88u as=0.26p ps=1.52u w=1u l=0.28u
X200 TG_magic_7.B S2.t6 Vout.t55 VSS.t30 nfet_03v3 ad=0.26p pd=1.52u as=0.26p ps=1.52u w=1u l=0.28u
X201 TG_GATE_SWITCH_magic_7.B a_3874_308.t11 TG_magic_5.A.t102 VDD.t295 pfet_03v3 ad=0.44p pd=2.88u as=0.26p ps=1.52u w=1u l=0.28u
X202 A4 a_n1894_n2271.t9 TG_GATE_SWITCH_magic_6.B.t62 VDD.t8 pfet_03v3 ad=0.44p pd=2.88u as=0.26p ps=1.52u w=1u l=0.28u
X203 VDD TG_magic_1.CLK a_2004_n6151.t2 VDD.t125 pfet_03v3 ad=0.44p pd=2.88u as=0.44p ps=2.88u w=1u l=0.28u
X204 a_n2298_n7431# ENA.t9 VSS.t56 VSS.t54 nfet_03v3 ad=0.44p pd=2.88u as=0.44p ps=2.88u w=1u l=0.28u
X205 TG_magic_2.B TG_magic_7.CLK TG_magic_7.B.t83 VSS.t221 nfet_03v3 ad=0.26p pd=1.52u as=0.26p ps=1.52u w=1u l=0.28u
X206 A2 a_n1894_307.t8 TG_GATE_SWITCH_magic_7.B.t14 VDD.t106 pfet_03v3 ad=0.44p pd=2.88u as=0.26p ps=1.52u w=1u l=0.28u
X207 TG_GATE_SWITCH_magic_0.B a_2004_1105.t11 TG_magic_0.A.t40 VDD.t69 pfet_03v3 ad=0.26p pd=1.52u as=0.26p ps=1.52u w=1u l=0.28u
X208 TG_magic_7.CLK S1.t11 VDD.t190 VDD.t25 pfet_03v3 ad=0.26p pd=1.52u as=0.44p ps=2.88u w=1u l=0.28u
X209 TG_GATE_SWITCH_magic_6.B a_301_308.t13 TG_magic_0.A.t19 VDD.t82 pfet_03v3 ad=0.44p pd=2.88u as=0.26p ps=1.52u w=1u l=0.28u
X210 TG_GATE_SWITCH_magic_6.B a_n1894_n2271.t10 A4.t31 VDD.t10 pfet_03v3 ad=0.26p pd=1.52u as=0.26p ps=1.52u w=1u l=0.28u
X211 Vout a_5741_n4853.t12 TG_magic_7.B.t106 VDD.t56 pfet_03v3 ad=0.26p pd=1.52u as=0.44p ps=2.88u w=1u l=0.28u
X212 TG_GATE_SWITCH_magic_1.B a_n4297_n4860.t12 A3.t20 VDD.t17 pfet_03v3 ad=0.26p pd=1.52u as=0.44p ps=2.88u w=1u l=0.28u
X213 TG_magic_5.A a_5684_1104.t11 TG_GATE_SWITCH_magic_3.B.t48 VDD.t234 pfet_03v3 ad=0.26p pd=1.52u as=0.26p ps=1.52u w=1u l=0.28u
X214 TG_GATE_SWITCH_magic_6.B a_n1894_n2271.t11 A4.t32 VDD.t7 pfet_03v3 ad=0.26p pd=1.52u as=0.26p ps=1.52u w=1u l=0.28u
X215 TG_GATE_SWITCH_magic_7.B a_n1894_307.t9 A2.t20 VDD.t61 pfet_03v3 ad=0.26p pd=1.52u as=0.26p ps=1.52u w=1u l=0.28u
X216 TG_magic_0.A a_2004_1105.t12 TG_GATE_SWITCH_magic_0.B.t6 VDD.t104 pfet_03v3 ad=0.26p pd=1.52u as=0.26p ps=1.52u w=1u l=0.28u
X217 TG_magic_1.CLK S0.t17 VSS.t134 VSS.t122 nfet_03v3 ad=0.13p pd=1.02u as=0.22p ps=1.88u w=0.5u l=0.28u
X218 TG_GATE_SWITCH_magic_2.B a_n4701_n7438# A5.t31 VSS.t207 nfet_03v3 ad=0.26p pd=1.52u as=0.26p ps=1.52u w=1u l=0.28u
X219 VDD TG_magic_1.CLK a_2004_1105.t2 VDD.t122 pfet_03v3 ad=0.44p pd=2.88u as=0.44p ps=2.88u w=1u l=0.28u
X220 a_n2298_n4853# ENA.t10 VDD.t96 VDD.t95 pfet_03v3 ad=0.44p pd=2.88u as=0.44p ps=2.88u w=1u l=0.28u
X221 TG_magic_5.A S1.t12 TG_magic_0.B.t39 VSS.t149 nfet_03v3 ad=0.44p pd=2.88u as=0.26p ps=1.52u w=1u l=0.28u
X222 A4 a_n1894_n2271.t12 TG_GATE_SWITCH_magic_6.B.t65 VDD.t8 pfet_03v3 ad=0.44p pd=2.88u as=0.26p ps=1.52u w=1u l=0.28u
X223 TG_GATE_SWITCH_magic_2.B a_n4297_n7438.t12 A5.t17 VDD.t241 pfet_03v3 ad=0.26p pd=1.52u as=0.26p ps=1.52u w=1u l=0.28u
X224 TG_magic_0.B a_2061_n2270.t12 TG_magic_0.A.t2 VDD.t13 pfet_03v3 ad=0.26p pd=1.52u as=0.26p ps=1.52u w=1u l=0.28u
X225 TG_GATE_SWITCH_magic_7.B a_n2298_307# A2.t35 VSS.t45 nfet_03v3 ad=0.26p pd=1.52u as=0.26p ps=1.52u w=1u l=0.28u
X226 TG_magic_0.B a_3817_n991.t11 TG_magic_5.A.t49 VDD.t63 pfet_03v3 ad=0.26p pd=1.52u as=0.44p ps=2.88u w=1u l=0.28u
X227 A2 a_n1894_307.t10 TG_GATE_SWITCH_magic_7.B.t42 VDD.t189 pfet_03v3 ad=0.26p pd=1.52u as=0.26p ps=1.52u w=1u l=0.28u
X228 TG_GATE_SWITCH_magic_1.B a_n4297_n4860.t13 A3.t19 VDD.t17 pfet_03v3 ad=0.26p pd=1.52u as=0.44p ps=2.88u w=1u l=0.28u
X229 TG_GATE_SWITCH_magic_1.B a_n4297_n4860.t14 A3.t18 VDD.t2 pfet_03v3 ad=0.26p pd=1.52u as=0.26p ps=1.52u w=1u l=0.28u
X230 TG_magic_4.B a_2061_n4852.t12 TG_magic_7.B.t24 VDD.t12 pfet_03v3 ad=0.26p pd=1.52u as=0.26p ps=1.52u w=1u l=0.28u
X231 TG_GATE_SWITCH_magic_4.B TG_magic_1.CLK TG_magic_2.B.t67 VSS.t99 nfet_03v3 ad=0.26p pd=1.52u as=0.26p ps=1.52u w=1u l=0.28u
X232 Vout S2.t7 TG_magic_7.B.t75 VSS.t32 nfet_03v3 ad=0.26p pd=1.52u as=0.26p ps=1.52u w=1u l=0.28u
X233 TG_GATE_SWITCH_magic_6.B a_n1894_n2271.t13 A4.t34 VDD.t7 pfet_03v3 ad=0.26p pd=1.52u as=0.26p ps=1.52u w=1u l=0.28u
X234 TG_GATE_SWITCH_magic_7.B a_n1894_307.t11 A2.t18 VDD.t61 pfet_03v3 ad=0.26p pd=1.52u as=0.26p ps=1.52u w=1u l=0.28u
X235 TG_magic_0.A a_2004_1105.t13 TG_GATE_SWITCH_magic_0.B.t7 VDD.t104 pfet_03v3 ad=0.26p pd=1.52u as=0.26p ps=1.52u w=1u l=0.28u
X236 TG_GATE_SWITCH_magic_7.B TG_magic_1.CLK TG_magic_5.A.t12 VSS.t79 nfet_03v3 ad=0.26p pd=1.52u as=0.26p ps=1.52u w=1u l=0.28u
X237 TG_GATE_SWITCH_magic_3.B S0.t18 TG_magic_5.A.t20 VSS.t21 nfet_03v3 ad=0.26p pd=1.52u as=0.26p ps=1.52u w=1u l=0.28u
X238 VDD S1.t13 TG_magic_7.CLK VDD.t27 pfet_03v3 ad=0.44p pd=2.88u as=0.26p ps=1.52u w=1u l=0.28u
X239 A5 a_n4701_n7438# TG_GATE_SWITCH_magic_2.B.t57 VSS.t206 nfet_03v3 ad=0.26p pd=1.52u as=0.26p ps=1.52u w=1u l=0.28u
X240 TG_GATE_SWITCH_magic_1.B a_n4297_n4860.t15 A3.t17 VDD.t3 pfet_03v3 ad=0.26p pd=1.52u as=0.26p ps=1.52u w=1u l=0.28u
X241 TG_GATE_SWITCH_magic_4.B a_3874_n7430.t9 TG_magic_2.B.t95 VDD.t53 pfet_03v3 ad=0.26p pd=1.52u as=0.26p ps=1.52u w=1u l=0.28u
X242 TG_magic_7.B TG_magic_7.CLK TG_magic_2.B.t103 VSS.t219 nfet_03v3 ad=0.26p pd=1.52u as=0.26p ps=1.52u w=1u l=0.28u
X243 TG_magic_4.B a_2061_n4852.t13 TG_magic_7.B.t25 VDD.t15 pfet_03v3 ad=0.26p pd=1.52u as=0.26p ps=1.52u w=1u l=0.28u
X244 TG_magic_7.B a_5741_n4853.t13 Vout.t21 VDD.t0 pfet_03v3 ad=0.26p pd=1.52u as=0.26p ps=1.52u w=1u l=0.28u
X245 TG_magic_0.A a_2004_1105.t14 TG_GATE_SWITCH_magic_0.B.t8 VDD.t59 pfet_03v3 ad=0.26p pd=1.52u as=0.44p ps=2.88u w=1u l=0.28u
X246 TG_magic_5.A a_3817_n991.t12 TG_magic_0.B.t69 VDD.t62 pfet_03v3 ad=0.26p pd=1.52u as=0.26p ps=1.52u w=1u l=0.28u
X247 VDD S0.t19 a_5684_1104.t3 VDD.t156 pfet_03v3 ad=0.44p pd=2.88u as=0.44p ps=2.88u w=1u l=0.28u
X248 TG_GATE_SWITCH_magic_0.B a_n4701_n2278# A0.t32 VSS.t62 nfet_03v3 ad=0.26p pd=1.52u as=0.44p ps=2.88u w=1u l=0.28u
X249 TG_magic_4.B S0.t20 TG_GATE_SWITCH_magic_5.B.t12 VSS.t129 nfet_03v3 ad=0.26p pd=1.52u as=0.26p ps=1.52u w=1u l=0.28u
X250 VSS S0.t21 TG_magic_1.CLK VSS.t125 nfet_03v3 ad=0.22p pd=1.88u as=0.13p ps=1.02u w=0.5u l=0.28u
X251 TG_GATE_SWITCH_magic_2.B a_5684_n6152.t11 TG_magic_2.B.t53 VDD.t288 pfet_03v3 ad=0.44p pd=2.88u as=0.26p ps=1.52u w=1u l=0.28u