* NGSPICE file created from folded_single_check8_flat.ext - technology: gf180mcuC

.subckt folded_single_check8_flat VDD VSS VINP VINN OUT IBIAS
X0 VSS a_n2814_n10181.t20 a_n3063_n8710.t15 VSS.t43 nfet_03v3 ad=0.78p pd=3.52u as=0.78p ps=3.52u w=3u l=0.28u
X1 OUT.t25 OUT.t24 OUT.t25 VSS.t10 nfet_03v3 ad=0.78p pd=3.52u as=0 ps=0 w=3u l=0.28u
X2 VSS a_n2814_n10181.t21 a_n3063_n9510.t22 VSS.t18 nfet_03v3 ad=0.78p pd=3.52u as=0.78p ps=3.52u w=3u l=0.28u
X3 a_n453_n1964.t7 a_n453_n1964.t6 a_n453_n1964.t7 VDD.t17 pfet_03v3 ad=0.78p pd=3.52u as=0 ps=0 w=3u l=0.56u
X4 VSS a_n89_n10306.t0 a_n89_n10306.t1 VSS.t3 nfet_03v3 ad=0.88p pd=4.88u as=0.88p ps=4.88u w=2u l=0.56u
X5 VDD IBIAS.t3 a_n2983_n1659.t30 VDD.t48 pfet_03v3 ad=0.78p pd=3.52u as=0.78p ps=3.52u w=3u l=0.56u
X6 a_n453_n3002.t19 a_n453_n3002.t18 a_n453_n3002.t19 VDD.t17 pfet_03v3 ad=0.78p pd=3.52u as=0 ps=0 w=3u l=0.56u
X7 VSS a_n2814_n10181.t22 a_n3063_n9510.t21 VSS.t33 nfet_03v3 ad=0.78p pd=3.52u as=0.78p ps=3.52u w=3u l=0.28u
X8 OUT.t23 OUT.t22 OUT.t23 VSS.t10 nfet_03v3 ad=0 pd=0 as=0.78p ps=3.52u w=3u l=0.28u
X9 VDD IBIAS.t7 a_n453_n3002.t11 VDD.t23 pfet_03v3 ad=0.78p pd=3.52u as=0.78p ps=3.52u w=3u l=0.56u
X10 a_n2983_n1659.t15 a_n2983_n1659.t14 a_n2983_n1659.t15 VDD.t31 pfet_03v3 ad=0.78p pd=3.52u as=0 ps=0 w=3u l=0.56u
X11 VDD IBIAS.t8 a_n2983_n1659.t26 VDD.t26 pfet_03v3 ad=0.78p pd=3.52u as=0.78p ps=3.52u w=3u l=0.56u
X12 VDD IBIAS.t9 a_n2983_n1659.t25 VDD.t26 pfet_03v3 ad=0.78p pd=3.52u as=0.78p ps=3.52u w=3u l=0.56u
X13 a_n2983_n1659.t13 a_n2983_n1659.t12 a_n2983_n1659.t13 VDD.t31 pfet_03v3 ad=0.78p pd=3.52u as=0 ps=0 w=3u l=0.56u
X14 a_n3063_n8710.t31 a_n3063_n8710.t30 a_n3063_n8710.t31 VSS.t6 nfet_03v3 ad=0.78p pd=3.52u as=0 ps=0 w=3u l=0.28u
X15 a_n2983_n1659.t11 a_n2983_n1659.t10 a_n2983_n1659.t11 VDD.t31 pfet_03v3 ad=0.78p pd=3.52u as=0 ps=0 w=3u l=0.56u
X16 a_n453_n3002.t17 a_n453_n3002.t16 a_n453_n3002.t17 VDD.t17 pfet_03v3 ad=0.78p pd=3.52u as=0 ps=0 w=3u l=0.56u
X17 OUT a_n168_n4318.t6 a_n453_n1964.t18 VDD.t39 pfet_03v3 ad=0.78p pd=3.52u as=1.32p ps=6.88u w=3u l=0.28u
X18 VDD IBIAS.t10 a_n453_n1964.t17 VDD.t23 pfet_03v3 ad=0.78p pd=3.52u as=0.78p ps=3.52u w=3u l=0.56u
X19 a_n2814_n10181.t17 a_n2814_n10181.t16 a_n2814_n10181.t17 VSS.t0 nfet_03v3 ad=0 pd=0 as=1.32p ps=6.88u w=3u l=0.28u
X20 VDD IBIAS.t11 a_n2983_n1659.t24 VDD.t26 pfet_03v3 ad=0.78p pd=3.52u as=0.78p ps=3.52u w=3u l=0.56u
X21 a_n3063_n8710.t29 a_n3063_n8710.t28 a_n3063_n8710.t29 VSS.t6 nfet_03v3 ad=0.78p pd=3.52u as=0 ps=0 w=3u l=0.28u
X22 OUT.t21 OUT.t20 OUT.t21 VSS.t0 nfet_03v3 ad=0 pd=0 as=1.32p ps=6.88u w=3u l=0.28u
X23 OUT a_n89_n10306.t7 a_n3063_n8710.t1 VSS.t1 nfet_03v3 ad=0.78p pd=3.52u as=1.32p ps=6.88u w=3u l=0.28u
X24 VSS a_n2814_n10181.t29 a_n3063_n8710.t14 VSS.t22 nfet_03v3 ad=0.78p pd=3.52u as=0.78p ps=3.52u w=3u l=0.28u
X25 VSS a_n2814_n10181.t30 a_n3063_n8710.t13 VSS.t22 nfet_03v3 ad=0.78p pd=3.52u as=0.78p ps=3.52u w=3u l=0.28u
X26 a_n3063_n9510.t31 a_n3063_n9510.t30 a_n3063_n9510.t31 VSS.t9 nfet_03v3 ad=0 pd=0 as=1.32p ps=6.88u w=3u l=0.28u
X27 a_n453_n1964.t5 a_n453_n1964.t4 a_n453_n1964.t5 VDD.t17 pfet_03v3 ad=0.78p pd=3.52u as=0 ps=0 w=3u l=0.56u
X28 VSS a_n2814_n10181.t32 a_n3063_n8710.t12 VSS.t18 nfet_03v3 ad=0.78p pd=3.52u as=0.78p ps=3.52u w=3u l=0.28u
X29 OUT a_n168_n4318.t8 a_n453_n1964.t19 VDD.t39 pfet_03v3 ad=0.78p pd=3.52u as=1.32p ps=6.88u w=3u l=0.28u
X30 VSS a_n2814_n10181.t33 a_n3063_n8710.t11 VSS.t43 nfet_03v3 ad=0.78p pd=3.52u as=0.78p ps=3.52u w=3u l=0.28u
X31 a_n3063_n9510.t29 a_n3063_n9510.t28 a_n3063_n9510.t29 VSS.t9 nfet_03v3 ad=0 pd=0 as=1.32p ps=6.88u w=3u l=0.28u
X32 VDD IBIAS.t17 a_n453_n1964.t14 VDD.t33 pfet_03v3 ad=0.78p pd=3.52u as=0.78p ps=3.52u w=3u l=0.56u
X33 VSS a_n2814_n10181.t34 a_n3063_n9510.t16 VSS.t43 nfet_03v3 ad=0.78p pd=3.52u as=0.78p ps=3.52u w=3u l=0.28u
X34 VSS a_n2814_n10181.t36 a_n3063_n8710.t10 VSS.t18 nfet_03v3 ad=0.78p pd=3.52u as=0.78p ps=3.52u w=3u l=0.28u
X35 a_n2814_n10181.t15 a_n2814_n10181.t14 a_n2814_n10181.t15 VSS.t10 nfet_03v3 ad=0.78p pd=3.52u as=0 ps=0 w=3u l=0.28u
X36 OUT a_n89_n10306.t11 a_n3063_n8710.t5 VSS.t8 nfet_03v3 ad=0.78p pd=3.52u as=1.32p ps=6.88u w=3u l=0.28u
X37 VSS a_n2814_n10181.t37 a_n3063_n9510.t15 VSS.t43 nfet_03v3 ad=0.78p pd=3.52u as=0.78p ps=3.52u w=3u l=0.28u
X38 a_n2983_n1659.t9 a_n2983_n1659.t8 a_n2983_n1659.t9 VDD.t31 pfet_03v3 ad=0 pd=0 as=0.78p ps=3.52u w=3u l=0.56u
X39 OUT.t19 OUT.t18 OUT.t19 VDD.t8 pfet_03v3 ad=0 pd=0 as=1.32p ps=6.88u w=3u l=0.28u
X40 VSS a_n2814_n10181.t38 a_n3063_n8710.t9 VSS.t33 nfet_03v3 ad=0.78p pd=3.52u as=0.78p ps=3.52u w=3u l=0.28u
X41 VDD IBIAS.t24 a_n453_n1964.t12 VDD.t33 pfet_03v3 ad=0.78p pd=3.52u as=0.78p ps=3.52u w=3u l=0.56u
X42 a_n2983_n1659.t7 a_n2983_n1659.t6 a_n2983_n1659.t7 VDD.t64 pfet_03v3 ad=0 pd=0 as=1.32p ps=6.88u w=3u l=0.56u
X43 VSS a_n2814_n10181.t39 a_n3063_n9510.t14 VSS.t33 nfet_03v3 ad=0.78p pd=3.52u as=0.78p ps=3.52u w=3u l=0.28u
X44 VDD IBIAS.t26 a_n453_n3002.t7 VDD.t33 pfet_03v3 ad=0.78p pd=3.52u as=0.78p ps=3.52u w=3u l=0.56u
X45 a_n453_n1964.t3 a_n453_n1964.t2 a_n453_n1964.t3 VDD.t30 pfet_03v3 ad=0 pd=0 as=1.32p ps=6.88u w=3u l=0.56u
X46 VSS a_3734_n7493.t3 a_n168_n4318.t2 VSS.t3 nfet_03v3 ad=0.88p pd=4.88u as=0.88p ps=4.88u w=2u l=0.56u
X47 OUT a_n89_n10306.t12 a_n3063_n8710.t4 VSS.t8 nfet_03v3 ad=0.78p pd=3.52u as=1.32p ps=6.88u w=3u l=0.28u
X48 VSS a_n2814_n10181.t43 a_n3063_n8710.t8 VSS.t33 nfet_03v3 ad=0.78p pd=3.52u as=0.78p ps=3.52u w=3u l=0.28u
X49 a_n453_n3002.t15 a_n453_n3002.t14 a_n453_n3002.t15 VDD.t30 pfet_03v3 ad=0 pd=0 as=1.32p ps=6.88u w=3u l=0.56u
X50 a_n3063_n9510.t27 a_n3063_n9510.t26 a_n3063_n9510.t27 VSS.t6 nfet_03v3 ad=0 pd=0 as=0.78p ps=3.52u w=3u l=0.28u
X51 VDD IBIAS.t28 a_n2983_n1659.t19 VDD.t48 pfet_03v3 ad=0.78p pd=3.52u as=0.78p ps=3.52u w=3u l=0.56u
X52 VDD IBIAS.t29 a_n453_n1964.t10 VDD.t23 pfet_03v3 ad=0.78p pd=3.52u as=0.78p ps=3.52u w=3u l=0.56u
X53 a_n2814_n10181.t13 a_n2814_n10181.t12 a_n2814_n10181.t13 VSS.t0 nfet_03v3 ad=0 pd=0 as=1.32p ps=6.88u w=3u l=0.28u
X54 a_n2983_n1659.t5 a_n2983_n1659.t4 a_n2983_n1659.t5 VDD.t64 pfet_03v3 ad=0 pd=0 as=1.32p ps=6.88u w=3u l=0.56u
X55 VDD IBIAS.t30 a_n453_n3002.t5 VDD.t23 pfet_03v3 ad=0.78p pd=3.52u as=0.78p ps=3.52u w=3u l=0.56u
X56 a_n3063_n9510.t25 a_n3063_n9510.t24 a_n3063_n9510.t25 VSS.t6 nfet_03v3 ad=0.78p pd=3.52u as=0 ps=0 w=3u l=0.28u
X57 OUT.t17 OUT.t16 OUT.t17 VDD.t8 pfet_03v3 ad=0 pd=0 as=1.32p ps=6.88u w=3u l=0.28u
X58 OUT.t15 OUT.t14 OUT.t15 VDD.t3 pfet_03v3 ad=0.78p pd=3.52u as=0 ps=0 w=3u l=0.28u
X59 a_n2983_n1659.t3 a_n2983_n1659.t2 a_n2983_n1659.t3 VDD.t64 pfet_03v3 ad=0 pd=0 as=1.32p ps=6.88u w=3u l=0.56u
X60 VDD IBIAS.t31 a_n453_n3002.t4 VDD.t33 pfet_03v3 ad=0.78p pd=3.52u as=0.78p ps=3.52u w=3u l=0.56u
X61 OUT a_n89_n10306.t14 a_n3063_n8710.t7 VSS.t1 nfet_03v3 ad=0.78p pd=3.52u as=1.32p ps=6.88u w=3u l=0.28u
X62 VDD IBIAS.t32 a_n2983_n1659.t18 VDD.t26 pfet_03v3 ad=0.78p pd=3.52u as=0.78p ps=3.52u w=3u l=0.56u
X63 VDD IBIAS.t33 a_n2983_n1659.t17 VDD.t48 pfet_03v3 ad=0.78p pd=3.52u as=0.78p ps=3.52u w=3u l=0.56u
X64 VDD IBIAS.t34 a_n2983_n1659.t16 VDD.t48 pfet_03v3 ad=0.78p pd=3.52u as=0.78p ps=3.52u w=3u l=0.56u
X65 a_n453_n1964.t1 a_n453_n1964.t0 a_n453_n1964.t1 VDD.t30 pfet_03v3 ad=0 pd=0 as=1.32p ps=6.88u w=3u l=0.56u
X66 VSS a_n2814_n10181.t47 a_n3063_n9510.t11 VSS.t22 nfet_03v3 ad=0.78p pd=3.52u as=0.78p ps=3.52u w=3u l=0.28u
X67 a_n3063_n8710.t27 a_n3063_n8710.t26 a_n3063_n8710.t27 VSS.t9 nfet_03v3 ad=0 pd=0 as=1.32p ps=6.88u w=3u l=0.28u
X68 OUT.t13 OUT.t12 OUT.t13 VDD.t3 pfet_03v3 ad=0.78p pd=3.52u as=0 ps=0 w=3u l=0.28u
X69 a_n2983_n1659.t1 a_n2983_n1659.t0 a_n2983_n1659.t1 VDD.t64 pfet_03v3 ad=0 pd=0 as=1.32p ps=6.88u w=3u l=0.56u
X70 VDD IBIAS.t0 IBIAS.t1 VDD.t65 pfet_03v3 ad=1.76p pd=8.88u as=1.76p ps=8.88u w=4u l=0.56u
X71 OUT.t11 OUT.t10 OUT.t11 VSS.t0 nfet_03v3 ad=0 pd=0 as=1.32p ps=6.88u w=3u l=0.28u
X72 a_n453_n3002.t13 a_n453_n3002.t12 a_n453_n3002.t13 VDD.t30 pfet_03v3 ad=0 pd=0 as=1.32p ps=6.88u w=3u l=0.56u
X73 VSS a_3734_n7493.t1 a_3734_n7493.t2 VSS.t11 nfet_03v3 ad=0.88p pd=4.88u as=0.88p ps=4.88u w=2u l=0.56u
X74 VSS a_n2814_n10181.t49 a_n3063_n9510.t9 VSS.t22 nfet_03v3 ad=0.78p pd=3.52u as=0.78p ps=3.52u w=3u l=0.28u
X75 VSS a_n2814_n10181.t50 a_n3063_n9510.t8 VSS.t18 nfet_03v3 ad=0.78p pd=3.52u as=0.78p ps=3.52u w=3u l=0.28u
X76 a_n2814_n10181.t11 a_n2814_n10181.t10 a_n2814_n10181.t11 VSS.t10 nfet_03v3 ad=0 pd=0 as=0.78p ps=3.52u w=3u l=0.28u
X77 a_n3063_n8710.t25 a_n3063_n8710.t24 a_n3063_n8710.t25 VSS.t9 nfet_03v3 ad=0 pd=0 as=1.32p ps=6.88u w=3u l=0.28u
R0 a_n2777_n5169.n0 a_n2777_n5169.t1 1.21383
R1 a_n2617_n5169.t0 a_n2617_n5169.n0 1.21383
R2 VDD.t62 VDD.t83 409.736
R3 VDD.t79 VDD.t65 363.524
R4 VDD.n195 VDD.t62 255.7
R5 VDD.n195 VDD.t79 153.421
R6 VDD.n254 VDD.t3 19.3637
R7 VDD.n1068 VDD.t26 12.698
R8 VDD.n266 VDD.t22 11.6184
R9 VDD.n622 VDD.t9 11.4588
R10 VDD.n1049 VDD.t64 11.005
R11 VDD.n640 VDD.t14 10.4172
R12 VDD.n287 VDD.t8 9.89723
R13 VDD.n902 VDD.t23 9.61159
R14 VDD.n864 VDD.t17 9.16456
R15 VDD.n257 VDD.t39 9.03664
R16 VDD.n607 VDD.t11 8.85467
R17 VDD.n604 VDD.t10 8.33383
R18 VDD.n873 VDD.t4 7.15294
R19 VDD.n643 VDD.t1 6.77133
R20 VDD.n911 VDD.t30 6.70591
R21 VDD.n194 VDD.t84 6.50617
R22 VDD.n196 VDD.n195 6.3005
R23 VDD.n1078 VDD.t20 5.92601
R24 VDD.n619 VDD.t12 5.72967
R25 VDD.n1062 VDD.t18 4.79734
R26 VDD.n194 VDD.t63 4.41333
R27 VDD.n198 VDD.n193 4.41137
R28 VDD.n197 VDD.t80 4.41137
R29 VDD.n628 VDD.t16 4.16717
R30 VDD.n707 VDD.n706 3.54072
R31 VDD.n707 VDD.n705 3.54072
R32 VDD.n201 VDD.n200 3.48503
R33 VDD.n201 VDD.n199 3.48503
R34 VDD.n383 VDD.n381 3.48503
R35 VDD.n359 VDD.n357 3.48503
R36 VDD.n359 VDD.n358 3.48503
R37 VDD.n886 VDD.t6 3.3532
R38 VDD.n835 VDD.n834 3.1505
R39 VDD.n14 VDD.n13 3.1505
R40 VDD.n12 VDD.n11 3.1505
R41 VDD.n10 VDD.n9 3.1505
R42 VDD.n8 VDD.n7 3.1505
R43 VDD.n752 VDD.n751 3.1505
R44 VDD.n754 VDD.n753 3.1505
R45 VDD.n756 VDD.n755 3.1505
R46 VDD.n758 VDD.n757 3.1505
R47 VDD.n760 VDD.n759 3.1505
R48 VDD.n762 VDD.n761 3.1505
R49 VDD.n764 VDD.n763 3.1505
R50 VDD.n766 VDD.n765 3.1505
R51 VDD.n768 VDD.n767 3.1505
R52 VDD.n770 VDD.n769 3.1505
R53 VDD.n772 VDD.n771 3.1505
R54 VDD.n774 VDD.n773 3.1505
R55 VDD.n776 VDD.n775 3.1505
R56 VDD.n778 VDD.n777 3.1505
R57 VDD.n780 VDD.n779 3.1505
R58 VDD.n782 VDD.n781 3.1505
R59 VDD.n784 VDD.n783 3.1505
R60 VDD.n786 VDD.n785 3.1505
R61 VDD.n788 VDD.n787 3.1505
R62 VDD.n790 VDD.n789 3.1505
R63 VDD.n792 VDD.n791 3.1505
R64 VDD.n794 VDD.n793 3.1505
R65 VDD.n796 VDD.n795 3.1505
R66 VDD.n798 VDD.n797 3.1505
R67 VDD.n800 VDD.n799 3.1505
R68 VDD.n803 VDD.n802 3.1505
R69 VDD.n805 VDD.n804 3.1505
R70 VDD.n808 VDD.n807 3.1505
R71 VDD.n810 VDD.n809 3.1505
R72 VDD.n813 VDD.n812 3.1505
R73 VDD.n815 VDD.n814 3.1505
R74 VDD.n818 VDD.n817 3.1505
R75 VDD.n820 VDD.n819 3.1505
R76 VDD.n823 VDD.n822 3.1505
R77 VDD.n825 VDD.n824 3.1505
R78 VDD.n828 VDD.n827 3.1505
R79 VDD.n830 VDD.n829 3.1505
R80 VDD.n833 VDD.n832 3.1505
R81 VDD.n16 VDD.n15 3.1505
R82 VDD.n854 VDD.n853 3.1505
R83 VDD.n857 VDD.n856 3.1505
R84 VDD.n856 VDD.n855 3.1505
R85 VDD.n860 VDD.n859 3.1505
R86 VDD.n859 VDD.n858 3.1505
R87 VDD.n863 VDD.n862 3.1505
R88 VDD.n862 VDD.n861 3.1505
R89 VDD.n866 VDD.n865 3.1505
R90 VDD.n865 VDD.n864 3.1505
R91 VDD.n869 VDD.n868 3.1505
R92 VDD.n868 VDD.n867 3.1505
R93 VDD.n872 VDD.n871 3.1505
R94 VDD.n871 VDD.n870 3.1505
R95 VDD.n875 VDD.n874 3.1505
R96 VDD.n874 VDD.n873 3.1505
R97 VDD.n879 VDD.n878 3.1505
R98 VDD.n878 VDD.n877 3.1505
R99 VDD.n882 VDD.n881 3.1505
R100 VDD.n881 VDD.n880 3.1505
R101 VDD.n885 VDD.n884 3.1505
R102 VDD.n884 VDD.n883 3.1505
R103 VDD.n888 VDD.n887 3.1505
R104 VDD.n887 VDD.n886 3.1505
R105 VDD.n891 VDD.n890 3.1505
R106 VDD.n890 VDD.n889 3.1505
R107 VDD.n904 VDD.n903 3.1505
R108 VDD.n903 VDD.n902 3.1505
R109 VDD.n907 VDD.n906 3.1505
R110 VDD.n906 VDD.n905 3.1505
R111 VDD.n910 VDD.n909 3.1505
R112 VDD.n909 VDD.n908 3.1505
R113 VDD.n913 VDD.n912 3.1505
R114 VDD.n912 VDD.n911 3.1505
R115 VDD.n916 VDD.n915 3.1505
R116 VDD.n915 VDD.n914 3.1505
R117 VDD.n919 VDD.n918 3.1505
R118 VDD.n918 VDD.n917 3.1505
R119 VDD.n922 VDD.n921 3.1505
R120 VDD.n921 VDD.n920 3.1505
R121 VDD.n924 VDD.n923 3.1505
R122 VDD.n58 VDD.n57 3.1505
R123 VDD.n20 VDD.n19 3.1505
R124 VDD.n22 VDD.n21 3.1505
R125 VDD.n24 VDD.n23 3.1505
R126 VDD.n26 VDD.n25 3.1505
R127 VDD.n28 VDD.n27 3.1505
R128 VDD.n30 VDD.n29 3.1505
R129 VDD.n32 VDD.n31 3.1505
R130 VDD.n35 VDD.n34 3.1505
R131 VDD.n37 VDD.n36 3.1505
R132 VDD.n39 VDD.n38 3.1505
R133 VDD.n41 VDD.n40 3.1505
R134 VDD.n43 VDD.n42 3.1505
R135 VDD.n46 VDD.n45 3.1505
R136 VDD.n48 VDD.n47 3.1505
R137 VDD.n50 VDD.n49 3.1505
R138 VDD.n52 VDD.n51 3.1505
R139 VDD.n54 VDD.n53 3.1505
R140 VDD.n56 VDD.n55 3.1505
R141 VDD.n18 VDD.n17 3.1505
R142 VDD.n741 VDD.n740 3.1505
R143 VDD.n724 VDD.n723 3.1505
R144 VDD.n724 VDD.n722 3.1505
R145 VDD.n693 VDD.n692 3.1505
R146 VDD.n681 VDD.n425 3.1505
R147 VDD.n410 VDD.n409 3.1505
R148 VDD.n412 VDD.n411 3.1505
R149 VDD.n414 VDD.n413 3.1505
R150 VDD.n416 VDD.n415 3.1505
R151 VDD.n418 VDD.n417 3.1505
R152 VDD.n420 VDD.n419 3.1505
R153 VDD.n422 VDD.n421 3.1505
R154 VDD.n424 VDD.n423 3.1505
R155 VDD.n683 VDD.n682 3.1505
R156 VDD.n685 VDD.n684 3.1505
R157 VDD.n687 VDD.n686 3.1505
R158 VDD.n689 VDD.n688 3.1505
R159 VDD.n691 VDD.n690 3.1505
R160 VDD.n695 VDD.n694 3.1505
R161 VDD.n697 VDD.n696 3.1505
R162 VDD.n699 VDD.n698 3.1505
R163 VDD.n702 VDD.n701 3.1505
R164 VDD.n704 VDD.n703 3.1505
R165 VDD.n710 VDD.n709 3.1505
R166 VDD.n712 VDD.n711 3.1505
R167 VDD.n715 VDD.n714 3.1505
R168 VDD.n717 VDD.n716 3.1505
R169 VDD.n720 VDD.n719 3.1505
R170 VDD.n726 VDD.n725 3.1505
R171 VDD.n729 VDD.n728 3.1505
R172 VDD.n731 VDD.n730 3.1505
R173 VDD.n734 VDD.n733 3.1505
R174 VDD.n736 VDD.n735 3.1505
R175 VDD.n739 VDD.n738 3.1505
R176 VDD.n940 VDD.n939 3.1505
R177 VDD.n408 VDD.n0 3.1505
R178 VDD.n60 VDD.n59 3.1505
R179 VDD.n399 VDD.n398 3.1505
R180 VDD.n401 VDD.n400 3.1505
R181 VDD.n403 VDD.n402 3.1505
R182 VDD.n405 VDD.n404 3.1505
R183 VDD.n407 VDD.n406 3.1505
R184 VDD.n244 VDD.n243 3.1505
R185 VDD.n250 VDD.n249 3.1505
R186 VDD.n249 VDD.n248 3.1505
R187 VDD.n253 VDD.n252 3.1505
R188 VDD.n252 VDD.n251 3.1505
R189 VDD.n256 VDD.n255 3.1505
R190 VDD.n255 VDD.n254 3.1505
R191 VDD.n259 VDD.n258 3.1505
R192 VDD.n258 VDD.n257 3.1505
R193 VDD.n262 VDD.n261 3.1505
R194 VDD.n261 VDD.n260 3.1505
R195 VDD.n265 VDD.n264 3.1505
R196 VDD.n264 VDD.n263 3.1505
R197 VDD.n268 VDD.n267 3.1505
R198 VDD.n267 VDD.n266 3.1505
R199 VDD.n271 VDD.n270 3.1505
R200 VDD.n270 VDD.n269 3.1505
R201 VDD.n274 VDD.n273 3.1505
R202 VDD.n273 VDD.n272 3.1505
R203 VDD.n277 VDD.n276 3.1505
R204 VDD.n276 VDD.n275 3.1505
R205 VDD.n280 VDD.n279 3.1505
R206 VDD.n279 VDD.n278 3.1505
R207 VDD.n283 VDD.n282 3.1505
R208 VDD.n282 VDD.n281 3.1505
R209 VDD.n286 VDD.n285 3.1505
R210 VDD.n285 VDD.n284 3.1505
R211 VDD.n289 VDD.n288 3.1505
R212 VDD.n288 VDD.n287 3.1505
R213 VDD.n292 VDD.n291 3.1505
R214 VDD.n291 VDD.n290 3.1505
R215 VDD.n295 VDD.n294 3.1505
R216 VDD.n294 VDD.n293 3.1505
R217 VDD.n297 VDD.n296 3.1505
R218 VDD.n247 VDD.n246 3.1505
R219 VDD.n246 VDD.n245 3.1505
R220 VDD.n242 VDD.n241 3.1505
R221 VDD.n236 VDD.n235 3.1505
R222 VDD.n234 VDD.n233 3.1505
R223 VDD.n231 VDD.n230 3.1505
R224 VDD.n229 VDD.n228 3.1505
R225 VDD.n226 VDD.n225 3.1505
R226 VDD.n224 VDD.n223 3.1505
R227 VDD.n221 VDD.n220 3.1505
R228 VDD.n219 VDD.n218 3.1505
R229 VDD.n216 VDD.n215 3.1505
R230 VDD.n214 VDD.n213 3.1505
R231 VDD.n211 VDD.n210 3.1505
R232 VDD.n209 VDD.n208 3.1505
R233 VDD.n206 VDD.n205 3.1505
R234 VDD.n204 VDD.n203 3.1505
R235 VDD.n192 VDD.n191 3.1505
R236 VDD.n190 VDD.n189 3.1505
R237 VDD.n188 VDD.n187 3.1505
R238 VDD.n302 VDD.n301 3.1505
R239 VDD.n305 VDD.n304 3.1505
R240 VDD.n343 VDD.n342 3.1505
R241 VDD.n307 VDD.n306 3.1505
R242 VDD.n309 VDD.n308 3.1505
R243 VDD.n311 VDD.n310 3.1505
R244 VDD.n313 VDD.n312 3.1505
R245 VDD.n315 VDD.n314 3.1505
R246 VDD.n317 VDD.n316 3.1505
R247 VDD.n319 VDD.n318 3.1505
R248 VDD.n321 VDD.n320 3.1505
R249 VDD.n323 VDD.n322 3.1505
R250 VDD.n325 VDD.n324 3.1505
R251 VDD.n327 VDD.n326 3.1505
R252 VDD.n329 VDD.n328 3.1505
R253 VDD.n331 VDD.n330 3.1505
R254 VDD.n333 VDD.n332 3.1505
R255 VDD.n335 VDD.n334 3.1505
R256 VDD.n337 VDD.n336 3.1505
R257 VDD.n339 VDD.n338 3.1505
R258 VDD.n341 VDD.n340 3.1505
R259 VDD.n393 VDD.n392 3.1505
R260 VDD.n391 VDD.n390 3.1505
R261 VDD.n388 VDD.n387 3.1505
R262 VDD.n386 VDD.n385 3.1505
R263 VDD.n377 VDD.n376 3.1505
R264 VDD.n374 VDD.n373 3.1505
R265 VDD.n372 VDD.n371 3.1505
R266 VDD.n369 VDD.n368 3.1505
R267 VDD.n367 VDD.n366 3.1505
R268 VDD.n364 VDD.n363 3.1505
R269 VDD.n362 VDD.n361 3.1505
R270 VDD.n356 VDD.n355 3.1505
R271 VDD.n354 VDD.n353 3.1505
R272 VDD.n352 VDD.n351 3.1505
R273 VDD.n350 VDD.n349 3.1505
R274 VDD.n346 VDD.n345 3.1505
R275 VDD.n300 VDD.n299 3.1505
R276 VDD.n348 VDD.n347 3.1505
R277 VDD.n90 VDD.n89 3.1505
R278 VDD.n590 VDD.n589 3.1505
R279 VDD.n588 VDD.n587 3.1505
R280 VDD.n585 VDD.n584 3.1505
R281 VDD.n583 VDD.n582 3.1505
R282 VDD.n580 VDD.n579 3.1505
R283 VDD.n578 VDD.n577 3.1505
R284 VDD.n575 VDD.n574 3.1505
R285 VDD.n573 VDD.n572 3.1505
R286 VDD.n570 VDD.n569 3.1505
R287 VDD.n568 VDD.n567 3.1505
R288 VDD.n565 VDD.n564 3.1505
R289 VDD.n563 VDD.n562 3.1505
R290 VDD.n560 VDD.n559 3.1505
R291 VDD.n558 VDD.n557 3.1505
R292 VDD.n555 VDD.n554 3.1505
R293 VDD.n553 VDD.n552 3.1505
R294 VDD.n551 VDD.n550 3.1505
R295 VDD.n549 VDD.n548 3.1505
R296 VDD.n547 VDD.n546 3.1505
R297 VDD.n545 VDD.n544 3.1505
R298 VDD.n543 VDD.n542 3.1505
R299 VDD.n541 VDD.n540 3.1505
R300 VDD.n539 VDD.n538 3.1505
R301 VDD.n537 VDD.n536 3.1505
R302 VDD.n535 VDD.n534 3.1505
R303 VDD.n533 VDD.n532 3.1505
R304 VDD.n531 VDD.n530 3.1505
R305 VDD.n529 VDD.n528 3.1505
R306 VDD.n527 VDD.n526 3.1505
R307 VDD.n525 VDD.n524 3.1505
R308 VDD.n523 VDD.n522 3.1505
R309 VDD.n521 VDD.n520 3.1505
R310 VDD.n519 VDD.n518 3.1505
R311 VDD.n517 VDD.n516 3.1505
R312 VDD.n515 VDD.n514 3.1505
R313 VDD.n513 VDD.n512 3.1505
R314 VDD.n511 VDD.n510 3.1505
R315 VDD.n132 VDD.n131 3.1505
R316 VDD.n130 VDD.n129 3.1505
R317 VDD.n128 VDD.n127 3.1505
R318 VDD.n126 VDD.n125 3.1505
R319 VDD.n124 VDD.n123 3.1505
R320 VDD.n122 VDD.n121 3.1505
R321 VDD.n120 VDD.n119 3.1505
R322 VDD.n118 VDD.n117 3.1505
R323 VDD.n116 VDD.n115 3.1505
R324 VDD.n114 VDD.n113 3.1505
R325 VDD.n112 VDD.n111 3.1505
R326 VDD.n110 VDD.n109 3.1505
R327 VDD.n108 VDD.n107 3.1505
R328 VDD.n106 VDD.n105 3.1505
R329 VDD.n104 VDD.n103 3.1505
R330 VDD.n102 VDD.n101 3.1505
R331 VDD.n100 VDD.n99 3.1505
R332 VDD.n98 VDD.n97 3.1505
R333 VDD.n96 VDD.n95 3.1505
R334 VDD.n94 VDD.n93 3.1505
R335 VDD.n92 VDD.n91 3.1505
R336 VDD.n134 VDD.n133 3.1505
R337 VDD.n668 VDD.n667 3.1505
R338 VDD.n655 VDD.n654 3.1505
R339 VDD.n650 VDD.n649 3.1505
R340 VDD.n653 VDD.n652 3.1505
R341 VDD.n648 VDD.n647 3.1505
R342 VDD.n62 VDD.n61 3.1505
R343 VDD.n82 VDD.n81 3.1505
R344 VDD.n64 VDD.n63 3.1505
R345 VDD.n67 VDD.n66 3.1505
R346 VDD.n69 VDD.n68 3.1505
R347 VDD.n72 VDD.n71 3.1505
R348 VDD.n74 VDD.n73 3.1505
R349 VDD.n77 VDD.n76 3.1505
R350 VDD.n79 VDD.n78 3.1505
R351 VDD.n85 VDD.n84 3.1505
R352 VDD.n88 VDD.n87 3.1505
R353 VDD.n185 VDD.n184 3.1505
R354 VDD.n177 VDD.n176 3.1505
R355 VDD.n180 VDD.n179 3.1505
R356 VDD.n182 VDD.n181 3.1505
R357 VDD.n175 VDD.n174 3.1505
R358 VDD.n172 VDD.n171 3.1505
R359 VDD.n156 VDD.n155 3.1505
R360 VDD.n158 VDD.n157 3.1505
R361 VDD.n160 VDD.n159 3.1505
R362 VDD.n162 VDD.n161 3.1505
R363 VDD.n164 VDD.n163 3.1505
R364 VDD.n166 VDD.n165 3.1505
R365 VDD.n169 VDD.n168 3.1505
R366 VDD.n154 VDD.n153 3.1505
R367 VDD.n152 VDD.n151 3.1505
R368 VDD.n145 VDD.n144 3.1505
R369 VDD.n147 VDD.n146 3.1505
R370 VDD.n149 VDD.n148 3.1505
R371 VDD.n143 VDD.n142 3.1505
R372 VDD.n141 VDD.n140 3.1505
R373 VDD.n138 VDD.n137 3.1505
R374 VDD.n136 VDD.n135 3.1505
R375 VDD.n591 VDD.n509 3.1505
R376 VDD.n645 VDD.n644 3.1505
R377 VDD.n644 VDD.n643 3.1505
R378 VDD.n642 VDD.n641 3.1505
R379 VDD.n641 VDD.n640 3.1505
R380 VDD.n639 VDD.n638 3.1505
R381 VDD.n638 VDD.n637 3.1505
R382 VDD.n636 VDD.n635 3.1505
R383 VDD.n635 VDD.n634 3.1505
R384 VDD.n633 VDD.n632 3.1505
R385 VDD.n632 VDD.n631 3.1505
R386 VDD.n630 VDD.n629 3.1505
R387 VDD.n629 VDD.n628 3.1505
R388 VDD.n627 VDD.n626 3.1505
R389 VDD.n626 VDD.n625 3.1505
R390 VDD.n624 VDD.n623 3.1505
R391 VDD.n623 VDD.n622 3.1505
R392 VDD.n621 VDD.n620 3.1505
R393 VDD.n620 VDD.n619 3.1505
R394 VDD.n618 VDD.n617 3.1505
R395 VDD.n617 VDD.n616 3.1505
R396 VDD.n615 VDD.n614 3.1505
R397 VDD.n614 VDD.n613 3.1505
R398 VDD.n612 VDD.n611 3.1505
R399 VDD.n611 VDD.n610 3.1505
R400 VDD.n609 VDD.n608 3.1505
R401 VDD.n608 VDD.n607 3.1505
R402 VDD.n606 VDD.n605 3.1505
R403 VDD.n605 VDD.n604 3.1505
R404 VDD.n603 VDD.n602 3.1505
R405 VDD.n602 VDD.n601 3.1505
R406 VDD.n600 VDD.n599 3.1505
R407 VDD.n599 VDD.n598 3.1505
R408 VDD.n597 VDD.n596 3.1505
R409 VDD.n596 VDD.n595 3.1505
R410 VDD.n594 VDD.n593 3.1505
R411 VDD.n593 VDD.n592 3.1505
R412 VDD.n670 VDD.n669 3.1505
R413 VDD.n673 VDD.n672 3.1505
R414 VDD.n672 VDD.n671 3.1505
R415 VDD.n676 VDD.n675 3.1505
R416 VDD.n675 VDD.n674 3.1505
R417 VDD.n448 VDD.n447 3.1505
R418 VDD.n1021 VDD.n1020 3.1505
R419 VDD.n1018 VDD.n1017 3.1505
R420 VDD.n1015 VDD.n1014 3.1505
R421 VDD.n1013 VDD.n1012 3.1505
R422 VDD.n1010 VDD.n1009 3.1505
R423 VDD.n1008 VDD.n1007 3.1505
R424 VDD.n1005 VDD.n1004 3.1505
R425 VDD.n1003 VDD.n1002 3.1505
R426 VDD.n1000 VDD.n999 3.1505
R427 VDD.n998 VDD.n997 3.1505
R428 VDD.n995 VDD.n994 3.1505
R429 VDD.n993 VDD.n992 3.1505
R430 VDD.n990 VDD.n989 3.1505
R431 VDD.n988 VDD.n987 3.1505
R432 VDD.n985 VDD.n984 3.1505
R433 VDD.n983 VDD.n982 3.1505
R434 VDD.n981 VDD.n980 3.1505
R435 VDD.n979 VDD.n978 3.1505
R436 VDD.n977 VDD.n976 3.1505
R437 VDD.n975 VDD.n974 3.1505
R438 VDD.n973 VDD.n972 3.1505
R439 VDD.n971 VDD.n970 3.1505
R440 VDD.n969 VDD.n968 3.1505
R441 VDD.n967 VDD.n966 3.1505
R442 VDD.n965 VDD.n964 3.1505
R443 VDD.n963 VDD.n962 3.1505
R444 VDD.n432 VDD.n431 3.1505
R445 VDD.n434 VDD.n433 3.1505
R446 VDD.n436 VDD.n435 3.1505
R447 VDD.n438 VDD.n437 3.1505
R448 VDD.n440 VDD.n439 3.1505
R449 VDD.n443 VDD.n442 3.1505
R450 VDD.n445 VDD.n444 3.1505
R451 VDD.n1023 VDD.n1022 3.1505
R452 VDD.n491 VDD.n490 3.1505
R453 VDD.n489 VDD.n488 3.1505
R454 VDD.n487 VDD.n486 3.1505
R455 VDD.n485 VDD.n484 3.1505
R456 VDD.n483 VDD.n482 3.1505
R457 VDD.n481 VDD.n480 3.1505
R458 VDD.n475 VDD.n474 3.1505
R459 VDD.n473 VDD.n472 3.1505
R460 VDD.n471 VDD.n470 3.1505
R461 VDD.n469 VDD.n468 3.1505
R462 VDD.n466 VDD.n465 3.1505
R463 VDD.n464 VDD.n463 3.1505
R464 VDD.n462 VDD.n461 3.1505
R465 VDD.n460 VDD.n459 3.1505
R466 VDD.n458 VDD.n457 3.1505
R467 VDD.n456 VDD.n455 3.1505
R468 VDD.n454 VDD.n453 3.1505
R469 VDD.n452 VDD.n451 3.1505
R470 VDD.n450 VDD.n449 3.1505
R471 VDD.n1094 VDD.n1093 3.1505
R472 VDD.n1039 VDD.n1038 3.1505
R473 VDD.n1038 VDD.n1037 3.1505
R474 VDD.n1042 VDD.n1041 3.1505
R475 VDD.n1041 VDD.n1040 3.1505
R476 VDD.n1045 VDD.n1044 3.1505
R477 VDD.n1044 VDD.n1043 3.1505
R478 VDD.n1048 VDD.n1047 3.1505
R479 VDD.n1047 VDD.n1046 3.1505
R480 VDD.n1051 VDD.n1050 3.1505
R481 VDD.n1050 VDD.n1049 3.1505
R482 VDD.n1054 VDD.n1053 3.1505
R483 VDD.n1053 VDD.n1052 3.1505
R484 VDD.n1057 VDD.n1056 3.1505
R485 VDD.n1056 VDD.n1055 3.1505
R486 VDD.n1060 VDD.n1059 3.1505
R487 VDD.n1059 VDD.n1058 3.1505
R488 VDD.n1064 VDD.n1063 3.1505
R489 VDD.n1063 VDD.n1062 3.1505
R490 VDD.n1067 VDD.n1066 3.1505
R491 VDD.n1066 VDD.n1065 3.1505
R492 VDD.n1070 VDD.n1069 3.1505
R493 VDD.n1069 VDD.n1068 3.1505
R494 VDD.n1073 VDD.n1072 3.1505
R495 VDD.n1072 VDD.n1071 3.1505
R496 VDD.n1077 VDD.n1076 3.1505
R497 VDD.n1076 VDD.n1075 3.1505
R498 VDD.n1080 VDD.n1079 3.1505
R499 VDD.n1079 VDD.n1078 3.1505
R500 VDD.n1083 VDD.n1082 3.1505
R501 VDD.n1082 VDD.n1081 3.1505
R502 VDD.n1086 VDD.n1085 3.1505
R503 VDD.n1085 VDD.n1084 3.1505
R504 VDD.n1089 VDD.n1088 3.1505
R505 VDD.n1088 VDD.n1087 3.1505
R506 VDD.n1092 VDD.n1091 3.1505
R507 VDD.n1091 VDD.n1090 3.1505
R508 VDD.n1095 VDD.n1094 3.1505
R509 VDD.n1098 VDD.n1097 3.1505
R510 VDD.n1097 VDD.n1096 3.1505
R511 VDD.n1100 VDD.n1099 3.1505
R512 VDD.n1036 VDD.n1035 3.1505
R513 VDD.n427 VDD.n426 3.1505
R514 VDD.n1126 VDD.n1125 3.1505
R515 VDD.n1123 VDD.n1122 3.1505
R516 VDD.n1121 VDD.n1120 3.1505
R517 VDD.n1119 VDD.n1118 3.1505
R518 VDD.n1128 VDD.n1127 3.1505
R519 VDD.n1131 VDD.n1130 3.1505
R520 VDD.n1135 VDD.n1134 3.1505
R521 VDD.n1146 VDD.n1145 3.1505
R522 VDD.n1143 VDD.n1142 3.1505
R523 VDD.n1140 VDD.n1139 3.1505
R524 VDD.n1138 VDD.n1137 3.1505
R525 VDD.n1148 VDD.n1147 3.1505
R526 VDD.n1152 VDD.n1151 3.1505
R527 VDD.n1166 VDD.n1165 3.1505
R528 VDD.n1163 VDD.n1162 3.1505
R529 VDD.n1160 VDD.n1159 3.1505
R530 VDD.n1158 VDD.n1157 3.1505
R531 VDD.n1155 VDD.n1154 3.1505
R532 VDD.n1168 VDD.n1167 3.1505
R533 VDD.n1172 VDD.n1171 3.1505
R534 VDD.n1192 VDD.n1191 3.1505
R535 VDD.n1189 VDD.n1188 3.1505
R536 VDD.n1182 VDD.n1181 3.1505
R537 VDD.n1180 VDD.n1179 3.1505
R538 VDD.n1177 VDD.n1176 3.1505
R539 VDD.n1175 VDD.n1174 3.1505
R540 VDD.n1194 VDD.n1193 3.1505
R541 VDD.n1198 VDD.n1197 3.1505
R542 VDD.n1117 VDD.n1116 3.1505
R543 VDD.n1114 VDD.n1113 3.1505
R544 VDD.n1111 VDD.n1110 3.1505
R545 VDD.n1108 VDD.n1107 3.1505
R546 VDD.n1105 VDD.n1104 3.1505
R547 VDD.n1103 VDD.n1102 3.1505
R548 VDD.n679 VDD.n678 3.1505
R549 VDD.n943 VDD.n942 3.1505
R550 VDD.n634 VDD.t13 3.1255
R551 VDD.n1055 VDD.t48 3.10434
R552 VDD.n430 VDD.n429 2.6005
R553 VDD.n959 VDD.n958 2.6005
R554 VDD.n960 VDD.n956 2.6005
R555 VDD.n961 VDD.n954 2.6005
R556 VDD.n6 VDD.n5 2.6005
R557 VDD.n748 VDD.n747 2.6005
R558 VDD.n749 VDD.n745 2.6005
R559 VDD.n750 VDD.n743 2.6005
R560 VDD.n3 VDD.n2 2.6005
R561 VDD.n898 VDD.n897 2.6005
R562 VDD.n899 VDD.n895 2.6005
R563 VDD.n900 VDD.n893 2.6005
R564 VDD.n478 VDD.n477 2.6005
R565 VDD.n950 VDD.n949 2.6005
R566 VDD.n951 VDD.n947 2.6005
R567 VDD.n952 VDD.n945 2.6005
R568 VDD.n1107 VDD.n1106 2.40832
R569 VDD.n1110 VDD.n1109 2.40832
R570 VDD.n1113 VDD.n1112 2.40832
R571 VDD.n1116 VDD.n1115 2.40832
R572 VDD.n1197 VDD.n1195 2.40832
R573 VDD.n1197 VDD.n1196 2.40832
R574 VDD.n1171 VDD.n1170 2.40832
R575 VDD.n1151 VDD.n1150 2.40832
R576 VDD.n1134 VDD.n1133 2.40832
R577 VDD.n1130 VDD.n1129 2.40832
R578 VDD.n1154 VDD.n1153 2.40832
R579 VDD.n281 VDD.t0 2.15196
R580 VDD.n749 VDD.n748 2.03528
R581 VDD.n899 VDD.n898 2.03528
R582 VDD.n750 VDD.n749 2.03137
R583 VDD.n900 VDD.n899 2.03137
R584 VDD.n1084 VDD.t31 1.97567
R585 VDD.n241 VDD.n240 1.7598
R586 VDD.n299 VDD.n298 1.75914
R587 VDD.n942 VDD.n941 1.75914
R588 VDD.n667 VDD.n666 1.74343
R589 VDD.n1017 VDD.n1016 1.74343
R590 VDD.n1012 VDD.n1011 1.74343
R591 VDD.n1007 VDD.n1006 1.74343
R592 VDD.n1002 VDD.n1001 1.74343
R593 VDD.n997 VDD.n996 1.74343
R594 VDD.n992 VDD.n991 1.74343
R595 VDD.n987 VDD.n986 1.74343
R596 VDD.n1142 VDD.n1141 1.74343
R597 VDD.n1162 VDD.n1161 1.74343
R598 VDD.n1188 VDD.n1187 1.74343
R599 VDD.n1179 VDD.n1178 1.74343
R600 VDD.n832 VDD.n831 1.74276
R601 VDD.n827 VDD.n826 1.74276
R602 VDD.n822 VDD.n821 1.74276
R603 VDD.n817 VDD.n816 1.74276
R604 VDD.n812 VDD.n811 1.74276
R605 VDD.n807 VDD.n806 1.74276
R606 VDD.n802 VDD.n801 1.74276
R607 VDD.n722 VDD.n721 1.74276
R608 VDD.n701 VDD.n700 1.74276
R609 VDD.n714 VDD.n713 1.74276
R610 VDD.n719 VDD.n718 1.74276
R611 VDD.n728 VDD.n727 1.74276
R612 VDD.n733 VDD.n732 1.74276
R613 VDD.n738 VDD.n737 1.74276
R614 VDD.n304 VDD.n303 1.74276
R615 VDD.n233 VDD.n232 1.74276
R616 VDD.n228 VDD.n227 1.74276
R617 VDD.n223 VDD.n222 1.74276
R618 VDD.n218 VDD.n217 1.74276
R619 VDD.n213 VDD.n212 1.74276
R620 VDD.n208 VDD.n207 1.74276
R621 VDD.n383 VDD.n382 1.74276
R622 VDD.n390 VDD.n389 1.74276
R623 VDD.n376 VDD.n375 1.74276
R624 VDD.n371 VDD.n370 1.74276
R625 VDD.n366 VDD.n365 1.74276
R626 VDD.n587 VDD.n586 1.74276
R627 VDD.n582 VDD.n581 1.74276
R628 VDD.n577 VDD.n576 1.74276
R629 VDD.n572 VDD.n571 1.74276
R630 VDD.n567 VDD.n566 1.74276
R631 VDD.n562 VDD.n561 1.74276
R632 VDD.n557 VDD.n556 1.74276
R633 VDD.n87 VDD.n86 1.74276
R634 VDD.n652 VDD.n651 1.74276
R635 VDD.n647 VDD.n646 1.74276
R636 VDD.n81 VDD.n80 1.74276
R637 VDD.n66 VDD.n65 1.74276
R638 VDD.n71 VDD.n70 1.74276
R639 VDD.n76 VDD.n75 1.74276
R640 VDD.n184 VDD.n183 1.74276
R641 VDD.n179 VDD.n178 1.74276
R642 VDD.n174 VDD.n173 1.74276
R643 VDD.n168 VDD.n167 1.74276
R644 VDD.n494 VDD.n492 1.74276
R645 VDD.n494 VDD.n493 1.74276
R646 VDD.n613 VDD.t15 1.563
R647 VDD.n1102 VDD.n1101 1.42472
R648 VDD.n1137 VDD.n1136 1.42472
R649 VDD.n1174 VDD.n1173 1.42472
R650 VDD.n1191 VDD.n1190 1.42456
R651 VDD.n1165 VDD.n1164 1.42456
R652 VDD.n1157 VDD.n1156 1.42456
R653 VDD.n1145 VDD.n1144 1.42456
R654 VDD.n1125 VDD.n1124 1.42456
R655 VDD.n1020 VDD.n1019 1.42456
R656 VDD.n442 VDD.n441 1.42456
R657 VDD.n447 VDD.n446 1.42456
R658 VDD.n1034 VDD.n1033 1.40117
R659 VDD.n853 VDD.n852 1.36443
R660 VDD.n939 VDD.n938 1.36443
R661 VDD.n345 VDD.n344 1.351
R662 VDD.n509 VDD.n508 1.351
R663 VDD.n880 VDD.t33 1.34158
R664 VDD.n961 VDD.n960 1.27435
R665 VDD.n960 VDD.n959 1.27435
R666 VDD.n952 VDD.n951 1.27435
R667 VDD.n951 VDD.n950 1.27435
R668 VDD.n202 VDD.n198 1.21458
R669 VDD.n33 VDD.n6 1.1255
R670 VDD.n44 VDD.n3 1.1255
R671 VDD.n1035 VDD.n1034 1.0512
R672 VDD.n598 VDD.t2 1.04217
R673 VDD.n876 VDD.n750 1.03159
R674 VDD.n901 VDD.n900 1.03159
R675 VDD.n467 VDD.n430 0.968
R676 VDD.n479 VDD.n478 0.968
R677 VDD.n508 VDD.n507 0.901
R678 VDD.n1061 VDD.n961 0.9005
R679 VDD.n1074 VDD.n952 0.9005
R680 VDD.n852 VDD.n851 0.894284
R681 VDD.n851 VDD.n836 0.894284
R682 VDD.n938 VDD.n937 0.894284
R683 VDD.n937 VDD.n925 0.894284
R684 VDD.n666 VDD.n665 0.705355
R685 VDD.n1033 VDD.n1032 0.705355
R686 VDD.n1033 VDD.n1031 0.705355
R687 VDD.n1033 VDD.n1030 0.705355
R688 VDD.n1033 VDD.n1029 0.705355
R689 VDD.n1033 VDD.n1028 0.705355
R690 VDD.n1033 VDD.n1027 0.705355
R691 VDD.n1033 VDD.n1026 0.705355
R692 VDD.n1033 VDD.n1025 0.705355
R693 VDD.n1186 VDD.n1185 0.705355
R694 VDD.n1186 VDD.n1184 0.705355
R695 VDD.n1187 VDD.n1186 0.705355
R696 VDD.n851 VDD.n850 0.705118
R697 VDD.n851 VDD.n849 0.705118
R698 VDD.n851 VDD.n846 0.705118
R699 VDD.n851 VDD.n842 0.705118
R700 VDD.n851 VDD.n838 0.705118
R701 VDD.n851 VDD.n837 0.705118
R702 VDD.n937 VDD.n931 0.705118
R703 VDD.n937 VDD.n935 0.705118
R704 VDD.n937 VDD.n936 0.705118
R705 VDD.n937 VDD.n927 0.705118
R706 VDD.n202 VDD.n201 0.705118
R707 VDD.n239 VDD.n238 0.705118