* NGSPICE file created from trans_block_mag.ext - technology: gf180mcuC

.subckt pmos_3p3_METUKR a_n28_n930# a_n28_342# a_28_n886# a_n116_n886# w_n202_n1016#
+ a_n116_386# a_28_n250# a_28_386# a_n28_n294# a_n116_n250#
X0 a_28_386# a_n28_342# a_n116_386# w_n202_n1016# pfet_03v3 ad=1.1p pd=5.88u as=1.1p ps=5.88u w=2.5u l=0.28u
X1 a_28_n250# a_n28_n294# a_n116_n250# w_n202_n1016# pfet_03v3 ad=1.1p pd=5.88u as=1.1p ps=5.88u w=2.5u l=0.28u
X2 a_28_n886# a_n28_n930# a_n116_n886# w_n202_n1016# pfet_03v3 ad=1.1p pd=5.88u as=1.1p ps=5.88u w=2.5u l=0.28u
.ends

.subckt nmos_3p3_RZHRT2 a_372_217# a_52_n555# a_428_261# a_108_n511# a_52_n169# a_588_261#
+ a_n676_261# a_108_n125# a_n532_n511# a_n108_n555# a_n532_n125# a_n108_n169# a_212_n555#
+ a_212_n169# a_268_n511# a_268_n125# a_n428_217# a_n212_261# a_n372_261# a_n588_217#
+ a_n268_n555# a_n268_n169# a_372_n555# a_372_n169# a_428_n511# a_428_n125# a_108_261#
+ a_532_217# a_268_261# a_n52_n511# a_52_217# a_n428_n555# a_n52_n125# a_n428_n169#
+ a_532_n555# a_588_n511# a_532_n169# a_588_n125# a_n212_n511# a_n108_217# a_n588_n555#
+ a_n212_n125# a_n588_n169# a_n268_217# a_n676_n511# a_n532_261# a_n676_n125# a_n372_n511#
+ a_n52_261# a_n372_n125# a_212_217# VSUBS
X0 a_n52_n125# a_n108_n169# a_n212_n125# VSUBS nfet_03v3 ad=0.325p pd=1.77u as=0.325p ps=1.77u w=1.25u l=0.28u
X1 a_108_261# a_52_217# a_n52_261# VSUBS nfet_03v3 ad=0.325p pd=1.77u as=0.325p ps=1.77u w=1.25u l=0.28u
X2 a_268_261# a_212_217# a_108_261# VSUBS nfet_03v3 ad=0.325p pd=1.77u as=0.325p ps=1.77u w=1.25u l=0.28u
X3 a_588_n511# a_532_n555# a_428_n511# VSUBS nfet_03v3 ad=0.55p pd=3.38u as=0.325p ps=1.77u w=1.25u l=0.28u
X4 a_n372_261# a_n428_217# a_n532_261# VSUBS nfet_03v3 ad=0.325p pd=1.77u as=0.325p ps=1.77u w=1.25u l=0.28u
X5 a_n532_n511# a_n588_n555# a_n676_n511# VSUBS nfet_03v3 ad=0.325p pd=1.77u as=0.55p ps=3.38u w=1.25u l=0.28u
X6 a_428_261# a_372_217# a_268_261# VSUBS nfet_03v3 ad=0.325p pd=1.77u as=0.325p ps=1.77u w=1.25u l=0.28u
X7 a_n372_n511# a_n428_n555# a_n532_n511# VSUBS nfet_03v3 ad=0.325p pd=1.77u as=0.325p ps=1.77u w=1.25u l=0.28u
X8 a_n532_261# a_n588_217# a_n676_261# VSUBS nfet_03v3 ad=0.325p pd=1.77u as=0.55p ps=3.38u w=1.25u l=0.28u
X9 a_588_n125# a_532_n169# a_428_n125# VSUBS nfet_03v3 ad=0.55p pd=3.38u as=0.325p ps=1.77u w=1.25u l=0.28u
X10 a_108_n511# a_52_n555# a_n52_n511# VSUBS nfet_03v3 ad=0.325p pd=1.77u as=0.325p ps=1.77u w=1.25u l=0.28u
X11 a_428_n511# a_372_n555# a_268_n511# VSUBS nfet_03v3 ad=0.325p pd=1.77u as=0.325p ps=1.77u w=1.25u l=0.28u
X12 a_268_n511# a_212_n555# a_108_n511# VSUBS nfet_03v3 ad=0.325p pd=1.77u as=0.325p ps=1.77u w=1.25u l=0.28u
X13 a_n532_n125# a_n588_n169# a_n676_n125# VSUBS nfet_03v3 ad=0.325p pd=1.77u as=0.55p ps=3.38u w=1.25u l=0.28u
X14 a_n372_n125# a_n428_n169# a_n532_n125# VSUBS nfet_03v3 ad=0.325p pd=1.77u as=0.325p ps=1.77u w=1.25u l=0.28u
X15 a_n212_n511# a_n268_n555# a_n372_n511# VSUBS nfet_03v3 ad=0.325p pd=1.77u as=0.325p ps=1.77u w=1.25u l=0.28u
X16 a_n52_261# a_n108_217# a_n212_261# VSUBS nfet_03v3 ad=0.325p pd=1.77u as=0.325p ps=1.77u w=1.25u l=0.28u
X17 a_n52_n511# a_n108_n555# a_n212_n511# VSUBS nfet_03v3 ad=0.325p pd=1.77u as=0.325p ps=1.77u w=1.25u l=0.28u
X18 a_108_n125# a_52_n169# a_n52_n125# VSUBS nfet_03v3 ad=0.325p pd=1.77u as=0.325p ps=1.77u w=1.25u l=0.28u
X19 a_428_n125# a_372_n169# a_268_n125# VSUBS nfet_03v3 ad=0.325p pd=1.77u as=0.325p ps=1.77u w=1.25u l=0.28u
X20 a_588_261# a_532_217# a_428_261# VSUBS nfet_03v3 ad=0.55p pd=3.38u as=0.325p ps=1.77u w=1.25u l=0.28u
X21 a_268_n125# a_212_n169# a_108_n125# VSUBS nfet_03v3 ad=0.325p pd=1.77u as=0.325p ps=1.77u w=1.25u l=0.28u
X22 a_n212_261# a_n268_217# a_n372_261# VSUBS nfet_03v3 ad=0.325p pd=1.77u as=0.325p ps=1.77u w=1.25u l=0.28u
X23 a_n212_n125# a_n268_n169# a_n372_n125# VSUBS nfet_03v3 ad=0.325p pd=1.77u as=0.325p ps=1.77u w=1.25u l=0.28u
.ends

.subckt nmos_3p3_Y4JRT2 a_n28_217# a_28_n511# a_28_n125# a_n28_n555# a_n28_n169# a_n116_n511#
+ a_n116_n125# a_n116_261# a_28_261# VSUBS
X0 a_28_n511# a_n28_n555# a_n116_n511# VSUBS nfet_03v3 ad=0.55p pd=3.38u as=0.55p ps=3.38u w=1.25u l=0.28u
X1 a_28_261# a_n28_217# a_n116_261# VSUBS nfet_03v3 ad=0.55p pd=3.38u as=0.55p ps=3.38u w=1.25u l=0.28u
X2 a_28_n125# a_n28_n169# a_n116_n125# VSUBS nfet_03v3 ad=0.55p pd=3.38u as=0.55p ps=3.38u w=1.25u l=0.28u
.ends

.subckt pmos_3p3_M6SUKR a_108_n886# a_n428_n930# a_532_n930# a_n676_n250# a_n532_n886#
+ a_n372_n250# a_212_342# a_372_342# a_268_n886# a_n588_n930# a_108_n250# a_52_n294#
+ a_n212_386# a_n372_386# a_n532_n250# a_n108_n294# a_212_n294# a_428_n886# a_268_n250#
+ a_108_386# a_268_386# a_n428_342# a_52_n930# a_n588_342# a_n52_n886# a_n268_n294#
+ a_372_n294# a_588_n886# a_n108_n930# a_212_n930# w_n762_n1016# a_428_n250# a_532_342#
+ a_n212_n886# a_52_342# a_n52_n250# a_n428_n294# a_n532_386# a_n676_n886# a_n268_n930#
+ a_532_n294# a_372_n930# a_588_n250# a_n52_386# a_n372_n886# a_n108_342# a_n212_n250#
+ a_n588_n294# a_428_386# a_n676_386# a_n268_342# a_588_386#
X0 a_108_386# a_52_342# a_n52_386# w_n762_n1016# pfet_03v3 ad=0.65p pd=3.02u as=0.65p ps=3.02u w=2.5u l=0.28u
X1 a_n532_n886# a_n588_n930# a_n676_n886# w_n762_n1016# pfet_03v3 ad=0.65p pd=3.02u as=1.1p ps=5.88u w=2.5u l=0.28u
X2 a_268_386# a_212_342# a_108_386# w_n762_n1016# pfet_03v3 ad=0.65p pd=3.02u as=0.65p ps=3.02u w=2.5u l=0.28u
X3 a_n372_n886# a_n428_n930# a_n532_n886# w_n762_n1016# pfet_03v3 ad=0.65p pd=3.02u as=0.65p ps=3.02u w=2.5u l=0.28u
X4 a_n372_386# a_n428_342# a_n532_386# w_n762_n1016# pfet_03v3 ad=0.65p pd=3.02u as=0.65p ps=3.02u w=2.5u l=0.28u
X5 a_108_n886# a_52_n930# a_n52_n886# w_n762_n1016# pfet_03v3 ad=0.65p pd=3.02u as=0.65p ps=3.02u w=2.5u l=0.28u
X6 a_428_n886# a_372_n930# a_268_n886# w_n762_n1016# pfet_03v3 ad=0.65p pd=3.02u as=0.65p ps=3.02u w=2.5u l=0.28u
X7 a_428_386# a_372_342# a_268_386# w_n762_n1016# pfet_03v3 ad=0.65p pd=3.02u as=0.65p ps=3.02u w=2.5u l=0.28u
X8 a_268_n886# a_212_n930# a_108_n886# w_n762_n1016# pfet_03v3 ad=0.65p pd=3.02u as=0.65p ps=3.02u w=2.5u l=0.28u
X9 a_n532_386# a_n588_342# a_n676_386# w_n762_n1016# pfet_03v3 ad=0.65p pd=3.02u as=1.1p ps=5.88u w=2.5u l=0.28u
X10 a_588_n250# a_532_n294# a_428_n250# w_n762_n1016# pfet_03v3 ad=1.1p pd=5.88u as=0.65p ps=3.02u w=2.5u l=0.28u
X11 a_n212_n886# a_n268_n930# a_n372_n886# w_n762_n1016# pfet_03v3 ad=0.65p pd=3.02u as=0.65p ps=3.02u w=2.5u l=0.28u
X12 a_n52_n886# a_n108_n930# a_n212_n886# w_n762_n1016# pfet_03v3 ad=0.65p pd=3.02u as=0.65p ps=3.02u w=2.5u l=0.28u
X13 a_n532_n250# a_n588_n294# a_n676_n250# w_n762_n1016# pfet_03v3 ad=0.65p pd=3.02u as=1.1p ps=5.88u w=2.5u l=0.28u
X14 a_n372_n250# a_n428_n294# a_n532_n250# w_n762_n1016# pfet_03v3 ad=0.65p pd=3.02u as=0.65p ps=3.02u w=2.5u l=0.28u
X15 a_n52_386# a_n108_342# a_n212_386# w_n762_n1016# pfet_03v3 ad=0.65p pd=3.02u as=0.65p ps=3.02u w=2.5u l=0.28u
X16 a_108_n250# a_52_n294# a_n52_n250# w_n762_n1016# pfet_03v3 ad=0.65p pd=3.02u as=0.65p ps=3.02u w=2.5u l=0.28u
X17 a_428_n250# a_372_n294# a_268_n250# w_n762_n1016# pfet_03v3 ad=0.65p pd=3.02u as=0.65p ps=3.02u w=2.5u l=0.28u
X18 a_588_386# a_532_342# a_428_386# w_n762_n1016# pfet_03v3 ad=1.1p pd=5.88u as=0.65p ps=3.02u w=2.5u l=0.28u
X19 a_268_n250# a_212_n294# a_108_n250# w_n762_n1016# pfet_03v3 ad=0.65p pd=3.02u as=0.65p ps=3.02u w=2.5u l=0.28u
X20 a_n212_386# a_n268_342# a_n372_386# w_n762_n1016# pfet_03v3 ad=0.65p pd=3.02u as=0.65p ps=3.02u w=2.5u l=0.28u
X21 a_n212_n250# a_n268_n294# a_n372_n250# w_n762_n1016# pfet_03v3 ad=0.65p pd=3.02u as=0.65p ps=3.02u w=2.5u l=0.28u
X22 a_n52_n250# a_n108_n294# a_n212_n250# w_n762_n1016# pfet_03v3 ad=0.65p pd=3.02u as=0.65p ps=3.02u w=2.5u l=0.28u
X23 a_588_n886# a_532_n930# a_428_n886# w_n762_n1016# pfet_03v3 ad=1.1p pd=5.88u as=0.65p ps=3.02u w=2.5u l=0.28u
.ends

.subckt Transmission_Gate_Layout VSS VDD CLKB VIN VOUT CLK
Xpmos_3p3_METUKR_0 CLK CLK CLKB VDD VDD VDD CLKB CLKB CLK VDD pmos_3p3_METUKR
Xnmos_3p3_RZHRT2_0 CLK CLK VIN VIN CLK VOUT VOUT VIN VIN CLK VIN CLK CLK CLK VOUT
+ VOUT CLK VIN VOUT CLK CLK CLK CLK CLK VIN VIN VIN CLK VOUT VOUT CLK CLK VOUT CLK
+ CLK VOUT CLK VOUT VIN CLK CLK VIN CLK CLK VOUT VIN VOUT VOUT VOUT VOUT CLK VSS nmos_3p3_RZHRT2
Xnmos_3p3_Y4JRT2_0 CLK CLKB CLKB CLK CLK VSS VSS VSS CLKB VSS nmos_3p3_Y4JRT2
Xpmos_3p3_M6SUKR_1 VIN CLKB CLKB VOUT VIN VOUT CLKB CLKB VOUT CLKB VIN CLKB VIN VOUT
+ VIN CLKB CLKB VIN VOUT VIN VOUT CLKB CLKB CLKB VOUT CLKB CLKB VOUT CLKB CLKB VDD
+ VIN CLKB VIN CLKB VOUT CLKB VIN VOUT CLKB CLKB CLKB VOUT VOUT VOUT CLKB VIN CLKB
+ VIN VOUT CLKB VOUT pmos_3p3_M6SUKR
.ends

.subckt ppolyf_u_RKAYB7 a_40_n902# a_520_800# a_1000_800# a_40_800# a_n440_800# a_n920_800#
+ a_n1400_800# a_1000_n902# w_n3024_n1086# a_n920_n902# a_1960_n902# a_n1880_n902#
+ a_n2840_n902# a_520_n902# a_1480_800# a_1960_800# a_2440_800# a_n440_n902# a_n1880_800#
+ a_1480_n902# a_2440_n902# a_n2360_800# a_n1400_n902# a_n2360_n902# a_n2840_800#
X0 a_40_800# a_40_n902# w_n3024_n1086# ppolyf_u r_width=2u r_length=8u
X1 a_1000_800# a_1000_n902# w_n3024_n1086# ppolyf_u r_width=2u r_length=8u
X2 a_1960_800# a_1960_n902# w_n3024_n1086# ppolyf_u r_width=2u r_length=8u
X3 a_n440_800# a_n440_n902# w_n3024_n1086# ppolyf_u r_width=2u r_length=8u
X4 a_n1400_800# a_n1400_n902# w_n3024_n1086# ppolyf_u r_width=2u r_length=8u
X5 a_n2360_800# a_n2360_n902# w_n3024_n1086# ppolyf_u r_width=2u r_length=8u
X6 a_n920_800# a_n920_n902# w_n3024_n1086# ppolyf_u r_width=2u r_length=8u
X7 a_n1880_800# a_n1880_n902# w_n3024_n1086# ppolyf_u r_width=2u r_length=8u
X8 a_520_800# a_520_n902# w_n3024_n1086# ppolyf_u r_width=2u r_length=8u
X9 a_1480_800# a_1480_n902# w_n3024_n1086# ppolyf_u r_width=2u r_length=8u
X10 a_2440_800# a_2440_n902# w_n3024_n1086# ppolyf_u r_width=2u r_length=8u
X11 a_n2840_800# a_n2840_n902# w_n3024_n1086# ppolyf_u r_width=2u r_length=8u
.ends

.subckt pfet_03v3_9DZW5M a_n28_n930# a_n28_342# a_28_n886# a_n116_n886# w_n202_n1016#
+ a_n116_386# a_28_n250# a_28_386# a_n28_n294# a_n116_n250#
X0 a_28_386# a_n28_342# a_n116_386# w_n202_n1016# pfet_03v3 ad=1.1p pd=5.88u as=1.1p ps=5.88u w=2.5u l=0.28u
X1 a_28_n250# a_n28_n294# a_n116_n250# w_n202_n1016# pfet_03v3 ad=1.1p pd=5.88u as=1.1p ps=5.88u w=2.5u l=0.28u
X2 a_28_n886# a_n28_n930# a_n116_n886# w_n202_n1016# pfet_03v3 ad=1.1p pd=5.88u as=1.1p ps=5.88u w=2.5u l=0.28u
.ends

.subckt pmos_3p3_9K6RD7 a_56_n300# a_n56_n344# a_n144_n300# w_n230_n430#
X0 a_56_n300# a_n56_n344# a_n144_n300# w_n230_n430# pfet_03v3 ad=1.32p pd=6.88u as=1.32p ps=6.88u w=3u l=0.56u
.ends

.subckt pmos_3p3_MA2VAR#0 w_n202_n430# a_28_n300# a_n28_n344# a_n116_n300#
X0 a_28_n300# a_n28_n344# a_n116_n300# w_n202_n430# pfet_03v3 ad=1.32p pd=6.88u as=1.32p ps=6.88u w=3u l=0.28u
.ends

.subckt pmos_3p3_VK6RD7 w_n230_n330# a_56_n200# a_n56_n244# a_n144_n200#
X0 a_56_n200# a_n56_n244# a_n144_n200# w_n230_n330# pfet_03v3 ad=0.88p pd=4.88u as=0.88p ps=4.88u w=2u l=0.56u
.ends

.subckt pmos_3p3_HWZ2RY a_100_n468# w_n274_n598# a_n100_24# a_n188_68# a_n100_n512#
+ a_n188_n468# a_100_68#
X0 a_100_68# a_n100_24# a_n188_68# w_n274_n598# pfet_03v3 ad=0.88p pd=4.88u as=0.88p ps=4.88u w=2u l=1u
X1 a_100_n468# a_n100_n512# a_n188_n468# w_n274_n598# pfet_03v3 ad=0.88p pd=4.88u as=0.88p ps=4.88u w=2u l=1u
.ends

.subckt nmos_3p3_276RTJ#0 a_52_n344# a_108_n300# a_n108_n344# a_n196_n300# a_n52_n300#
+ VSUBS
X0 a_108_n300# a_52_n344# a_n52_n300# VSUBS nfet_03v3 ad=1.32p pd=6.88u as=0.78p ps=3.52u w=3u l=0.28u
X1 a_n52_n300# a_n108_n344# a_n196_n300# VSUBS nfet_03v3 ad=0.78p pd=3.52u as=1.32p ps=6.88u w=3u l=0.28u
.ends

.subckt nmos_3p3_M86RTJ#0 a_28_n300# a_n28_n344# a_n116_n300# VSUBS
X0 a_28_n300# a_n28_n344# a_n116_n300# VSUBS nfet_03v3 ad=1.32p pd=6.88u as=1.32p ps=6.88u w=3u l=0.28u
.ends

.subckt pmos_3p3_MAJNAR a_n28_392# a_n116_n1772# a_n28_n1816# a_28_n1036# a_n116_n1036#
+ a_28_1172# a_n28_n1080# a_n116_436# a_n116_1172# a_28_n300# a_28_436# a_n28_1128#
+ a_n28_n344# a_n116_n300# a_28_n1772# w_n202_n1902#
X0 a_28_1172# a_n28_1128# a_n116_1172# w_n202_n1902# pfet_03v3 ad=1.32p pd=6.88u as=1.32p ps=6.88u w=3u l=0.28u
X1 a_28_n1772# a_n28_n1816# a_n116_n1772# w_n202_n1902# pfet_03v3 ad=1.32p pd=6.88u as=1.32p ps=6.88u w=3u l=0.28u
X2 a_28_436# a_n28_392# a_n116_436# w_n202_n1902# pfet_03v3 ad=1.32p pd=6.88u as=1.32p ps=6.88u w=3u l=0.28u
X3 a_28_n300# a_n28_n344# a_n116_n300# w_n202_n1902# pfet_03v3 ad=1.32p pd=6.88u as=1.32p ps=6.88u w=3u l=0.28u
X4 a_28_n1036# a_n28_n1080# a_n116_n1036# w_n202_n1902# pfet_03v3 ad=1.32p pd=6.88u as=1.32p ps=6.88u w=3u l=0.28u
.ends

.subckt pmos_3p3_VTYQD7 a_n52_n200# a_164_n200# a_n164_n244# a_n252_n200# a_52_n244#
+ w_n338_n330#
X0 a_164_n200# a_52_n244# a_n52_n200# w_n338_n330# pfet_03v3 ad=0.88p pd=4.88u as=0.52p ps=2.52u w=2u l=0.56u
X1 a_n52_n200# a_n164_n244# a_n252_n200# w_n338_n330# pfet_03v3 ad=0.52p pd=2.52u as=0.88p ps=4.88u w=2u l=0.56u
.ends

.subckt cap_mim_2p0fF_XHV85N m4_n2640_n3400# m4_n2520_n3280#
X0 m4_n2520_n3280# m4_n2640_n3400# cap_mim_2f0_m4m5_noshield c_width=24u c_length=15.5u
X1 m4_n2520_n3280# m4_n2640_n3400# cap_mim_2f0_m4m5_noshield c_width=24u c_length=15.5u
.ends

.subckt nmos_3p3_NQ5EG7 a_748_n1036# a_748_n300# a_268_n1036# a_n836_n1036# a_n372_n300#
+ a_n748_n344# a_52_n344# a_n212_436# a_n428_392# a_108_n1036# a_372_n1080# a_n748_n1080#
+ a_108_n300# a_n836_n300# a_n372_436# a_n268_n1080# a_n588_392# a_n372_n1036# a_n532_n300#
+ a_n108_n344# a_212_n344# a_268_n300# a_108_436# a_212_n1080# a_n108_n1080# a_268_436#
+ a_n836_436# a_532_392# a_748_436# a_692_392# a_588_n1036# a_n212_n1036# a_52_392#
+ a_n692_n300# a_n268_n344# a_52_n1080# a_372_n344# a_428_n1036# a_692_n1080# a_428_n300#
+ a_n588_n1080# a_n108_392# a_n268_392# a_n692_n1036# a_n52_n300# a_n428_n344# a_n532_436#
+ a_n692_436# a_n748_392# a_532_n344# a_n52_n1036# a_532_n1080# a_n428_n1080# a_588_n300#
+ a_n52_436# a_n532_n1036# a_212_392# a_n212_n300# a_n588_n344# a_428_436# a_372_392#
+ a_692_n344# a_588_436# VSUBS
X0 a_748_436# a_692_392# a_588_436# VSUBS nfet_03v3 ad=1.32p pd=6.88u as=0.78p ps=3.52u w=3u l=0.28u
X1 a_n52_n1036# a_n108_n1080# a_n212_n1036# VSUBS nfet_03v3 ad=0.78p pd=3.52u as=0.78p ps=3.52u w=3u l=0.28u
X2 a_108_n300# a_52_n344# a_n52_n300# VSUBS nfet_03v3 ad=0.78p pd=3.52u as=0.78p ps=3.52u w=3u l=0.28u
X3 a_428_n300# a_372_n344# a_268_n300# VSUBS nfet_03v3 ad=0.78p pd=3.52u as=0.78p ps=3.52u w=3u l=0.28u
X4 a_268_n300# a_212_n344# a_108_n300# VSUBS nfet_03v3 ad=0.78p pd=3.52u as=0.78p ps=3.52u w=3u l=0.28u
X5 a_268_n1036# a_212_n1080# a_108_n1036# VSUBS nfet_03v3 ad=0.78p pd=3.52u as=0.78p ps=3.52u w=3u l=0.28u
X6 a_108_436# a_52_392# a_n52_436# VSUBS nfet_03v3 ad=0.78p pd=3.52u as=0.78p ps=3.52u w=3u l=0.28u
X7 a_n212_n300# a_n268_n344# a_n372_n300# VSUBS nfet_03v3 ad=0.78p pd=3.52u as=0.78p ps=3.52u w=3u l=0.28u
X8 a_n372_n1036# a_n428_n1080# a_n532_n1036# VSUBS nfet_03v3 ad=0.78p pd=3.52u as=0.78p ps=3.52u w=3u l=0.28u
X9 a_268_436# a_212_392# a_108_436# VSUBS nfet_03v3 ad=0.78p pd=3.52u as=0.78p ps=3.52u w=3u l=0.28u
X10 a_n52_n300# a_n108_n344# a_n212_n300# VSUBS nfet_03v3 ad=0.78p pd=3.52u as=0.78p ps=3.52u w=3u l=0.28u
X11 a_n372_436# a_n428_392# a_n532_436# VSUBS nfet_03v3 ad=0.78p pd=3.52u as=0.78p ps=3.52u w=3u l=0.28u
X12 a_428_436# a_372_392# a_268_436# VSUBS nfet_03v3 ad=0.78p pd=3.52u as=0.78p ps=3.52u w=3u l=0.28u
X13 a_588_n1036# a_532_n1080# a_428_n1036# VSUBS nfet_03v3 ad=0.78p pd=3.52u as=0.78p ps=3.52u w=3u l=0.28u
X14 a_n212_n1036# a_n268_n1080# a_n372_n1036# VSUBS nfet_03v3 ad=0.78p pd=3.52u as=0.78p ps=3.52u w=3u l=0.28u
X15 a_n692_n1036# a_n748_n1080# a_n836_n1036# VSUBS nfet_03v3 ad=0.78p pd=3.52u as=1.32p ps=6.88u w=3u l=0.28u
X16 a_n532_436# a_n588_392# a_n692_436# VSUBS nfet_03v3 ad=0.78p pd=3.52u as=0.78p ps=3.52u w=3u l=0.28u
X17 a_n692_n300# a_n748_n344# a_n836_n300# VSUBS nfet_03v3 ad=0.78p pd=3.52u as=1.32p ps=6.88u w=3u l=0.28u
X18 a_428_n1036# a_372_n1080# a_268_n1036# VSUBS nfet_03v3 ad=0.78p pd=3.52u as=0.78p ps=3.52u w=3u l=0.28u
X19 a_n532_n1036# a_n588_n1080# a_n692_n1036# VSUBS nfet_03v3 ad=0.78p pd=3.52u as=0.78p ps=3.52u w=3u l=0.28u
X20 a_748_n300# a_692_n344# a_588_n300# VSUBS nfet_03v3 ad=1.32p pd=6.88u as=0.78p ps=3.52u w=3u l=0.28u
X21 a_108_n1036# a_52_n1080# a_n52_n1036# VSUBS nfet_03v3 ad=0.78p pd=3.52u as=0.78p ps=3.52u w=3u l=0.28u
X22 a_n52_436# a_n108_392# a_n212_436# VSUBS nfet_03v3 ad=0.78p pd=3.52u as=0.78p ps=3.52u w=3u l=0.28u
X23 a_588_n300# a_532_n344# a_428_n300# VSUBS nfet_03v3 ad=0.78p pd=3.52u as=0.78p ps=3.52u w=3u l=0.28u
X24 a_588_436# a_532_392# a_428_436# VSUBS nfet_03v3 ad=0.78p pd=3.52u as=0.78p ps=3.52u w=3u l=0.28u
X25 a_748_n1036# a_692_n1080# a_588_n1036# VSUBS nfet_03v3 ad=1.32p pd=6.88u as=0.78p ps=3.52u w=3u l=0.28u
X26 a_n532_n300# a_n588_n344# a_n692_n300# VSUBS nfet_03v3 ad=0.78p pd=3.52u as=0.78p ps=3.52u w=3u l=0.28u
X27 a_n692_436# a_n748_392# a_n836_436# VSUBS nfet_03v3 ad=0.78p pd=3.52u as=1.32p ps=6.88u w=3u l=0.28u
X28 a_n212_436# a_n268_392# a_n372_436# VSUBS nfet_03v3 ad=0.78p pd=3.52u as=0.78p ps=3.52u w=3u l=0.28u
X29 a_n372_n300# a_n428_n344# a_n532_n300# VSUBS nfet_03v3 ad=0.78p pd=3.52u as=0.78p ps=3.52u w=3u l=0.28u
.ends

.subckt nmos_3p3_QNHHV5 a_56_n200# a_n56_n244# a_n144_n200# VSUBS
X0 a_56_n200# a_n56_n244# a_n144_n200# VSUBS nfet_03v3 ad=0.88p pd=4.88u as=0.88p ps=4.88u w=2u l=0.56u
.ends

.subckt nmos_3p3_4F3WC4 a_n204_336# a_404_n200# a_100_336# a_100_n200# a_n404_292#
+ a_404_n736# a_n404_n244# a_204_n780# a_n492_n200# a_100_n736# a_n100_n244# a_n492_n736#
+ a_n492_336# a_n204_n200# a_n100_292# a_n204_n736# a_n404_n780# a_n100_n780# a_204_292#
+ a_204_n244# a_404_336# VSUBS
X0 a_100_n736# a_n100_n780# a_n204_n736# VSUBS nfet_03v3 ad=0.52p pd=2.52u as=0.52p ps=2.52u w=2u l=1u
X1 a_404_336# a_204_292# a_100_336# VSUBS nfet_03v3 ad=0.88p pd=4.88u as=0.52p ps=2.52u w=2u l=1u
X2 a_404_n200# a_204_n244# a_100_n200# VSUBS nfet_03v3 ad=0.88p pd=4.88u as=0.52p ps=2.52u w=2u l=1u
X3 a_100_336# a_n100_292# a_n204_336# VSUBS nfet_03v3 ad=0.52p pd=2.52u as=0.52p ps=2.52u w=2u l=1u
X4 a_100_n200# a_n100_n244# a_n204_n200# VSUBS nfet_03v3 ad=0.52p pd=2.52u as=0.52p ps=2.52u w=2u l=1u
X5 a_n204_336# a_n404_292# a_n492_336# VSUBS nfet_03v3 ad=0.52p pd=2.52u as=0.88p ps=4.88u w=2u l=1u
X6 a_n204_n736# a_n404_n780# a_n492_n736# VSUBS nfet_03v3 ad=0.52p pd=2.52u as=0.88p ps=4.88u w=2u l=1u
X7 a_404_n736# a_204_n780# a_100_n736# VSUBS nfet_03v3 ad=0.88p pd=4.88u as=0.52p ps=2.52u w=2u l=1u
X8 a_n204_n200# a_n404_n244# a_n492_n200# VSUBS nfet_03v3 ad=0.52p pd=2.52u as=0.88p ps=4.88u w=2u l=1u
.ends

.subckt pmos_3p3_H6V2RY a_n340_68# a_252_68# a_n252_n512# a_n52_68# a_52_24# a_252_n468#
+ a_n252_24# a_n340_n468# a_52_n512# w_n426_n598# a_n52_n468#
X0 a_n52_68# a_n252_24# a_n340_68# w_n426_n598# pfet_03v3 ad=0.52p pd=2.52u as=0.88p ps=4.88u w=2u l=1u
X1 a_252_68# a_52_24# a_n52_68# w_n426_n598# pfet_03v3 ad=0.88p pd=4.88u as=0.52p ps=2.52u w=2u l=1u
X2 a_252_n468# a_52_n512# a_n52_n468# w_n426_n598# pfet_03v3 ad=0.88p pd=4.88u as=0.52p ps=2.52u w=2u l=1u
X3 a_n52_n468# a_n252_n512# a_n340_n468# w_n426_n598# pfet_03v3 ad=0.52p pd=2.52u as=0.88p ps=4.88u w=2u l=1u
.ends

.subckt pmos_3p3_M22VUP a_n164_n344# a_n252_n300# a_52_n344# w_n338_n430# a_n52_n300#
+ a_164_n300#
X0 a_164_n300# a_52_n344# a_n52_n300# w_n338_n430# pfet_03v3 ad=1.32p pd=6.88u as=0.78p ps=3.52u w=3u l=0.56u
X1 a_n52_n300# a_n164_n344# a_n252_n300# w_n338_n430# pfet_03v3 ad=0.78p pd=3.52u as=1.32p ps=6.88u w=3u l=0.56u
.ends

.subckt pmos_3p3_M22VAR#0 a_52_n344# a_108_n300# a_n108_n344# a_n196_n300# a_n52_n300#
+ w_n282_n430#
X0 a_108_n300# a_52_n344# a_n52_n300# w_n282_n430# pfet_03v3 ad=1.32p pd=6.88u as=0.78p ps=3.52u w=3u l=0.28u
X1 a_n52_n300# a_n108_n344# a_n196_n300# w_n282_n430# pfet_03v3 ad=0.78p pd=3.52u as=1.32p ps=6.88u w=3u l=0.28u
.ends

.subckt nmos_3p3_5F3WC4 a_n52_n200# a_n52_n736# a_n52_336# a_n252_292# a_n252_n780#
+ a_52_n244# a_252_n200# a_252_n736# a_n252_n244# a_n340_336# a_52_292# a_252_336#
+ a_n340_n200# a_52_n780# a_n340_n736# VSUBS
X0 a_n52_n736# a_n252_n780# a_n340_n736# VSUBS nfet_03v3 ad=0.52p pd=2.52u as=0.88p ps=4.88u w=2u l=1u
X1 a_252_n736# a_52_n780# a_n52_n736# VSUBS nfet_03v3 ad=0.88p pd=4.88u as=0.52p ps=2.52u w=2u l=1u
X2 a_252_n200# a_52_n244# a_n52_n200# VSUBS nfet_03v3 ad=0.88p pd=4.88u as=0.52p ps=2.52u w=2u l=1u
X3 a_n52_n200# a_n252_n244# a_n340_n200# VSUBS nfet_03v3 ad=0.52p pd=2.52u as=0.88p ps=4.88u w=2u l=1u
X4 a_n52_336# a_n252_292# a_n340_336# VSUBS nfet_03v3 ad=0.52p pd=2.52u as=0.88p ps=4.88u w=2u l=1u
X5 a_252_336# a_52_292# a_n52_336# VSUBS nfet_03v3 ad=0.88p pd=4.88u as=0.52p ps=2.52u w=2u l=1u
.ends

.subckt pmos_3p3_M2JNAR a_n108_n1816# a_108_1172# a_52_1128# a_n196_n1772# a_52_n1816#
+ a_52_n344# a_n196_1172# a_108_n1036# a_108_n300# a_n108_n344# a_n108_1128# a_n196_n300#
+ a_108_436# a_n108_n1080# a_52_392# a_n52_n1772# a_n196_n1036# a_52_n1080# a_n52_1172#
+ a_n108_392# a_n52_n300# a_n52_n1036# a_n52_436# a_n196_436# a_108_n1772# w_n282_n1902#
X0 a_n52_n1036# a_n108_n1080# a_n196_n1036# w_n282_n1902# pfet_03v3 ad=0.78p pd=3.52u as=1.32p ps=6.88u w=3u l=0.28u
X1 a_108_n1772# a_52_n1816# a_n52_n1772# w_n282_n1902# pfet_03v3 ad=1.32p pd=6.88u as=0.78p ps=3.52u w=3u l=0.28u
X2 a_108_n300# a_52_n344# a_n52_n300# w_n282_n1902# pfet_03v3 ad=1.32p pd=6.88u as=0.78p ps=3.52u w=3u l=0.28u
X3 a_108_436# a_52_392# a_n52_436# w_n282_n1902# pfet_03v3 ad=1.32p pd=6.88u as=0.78p ps=3.52u w=3u l=0.28u
X4 a_n52_n300# a_n108_n344# a_n196_n300# w_n282_n1902# pfet_03v3 ad=0.78p pd=3.52u as=1.32p ps=6.88u w=3u l=0.28u
X5 a_n52_n1772# a_n108_n1816# a_n196_n1772# w_n282_n1902# pfet_03v3 ad=0.78p pd=3.52u as=1.32p ps=6.88u w=3u l=0.28u
X6 a_108_1172# a_52_1128# a_n52_1172# w_n282_n1902# pfet_03v3 ad=1.32p pd=6.88u as=0.78p ps=3.52u w=3u l=0.28u
X7 a_n52_1172# a_n108_1128# a_n196_1172# w_n282_n1902# pfet_03v3 ad=0.78p pd=3.52u as=1.32p ps=6.88u w=3u l=0.28u
X8 a_108_n1036# a_52_n1080# a_n52_n1036# w_n282_n1902# pfet_03v3 ad=1.32p pd=6.88u as=0.78p ps=3.52u w=3u l=0.28u
X9 a_n52_436# a_n108_392# a_n196_436# w_n282_n1902# pfet_03v3 ad=0.78p pd=3.52u as=1.32p ps=6.88u w=3u l=0.28u
.ends

.subckt pmos_3p3_MJGNAR a_212_n1816# a_n108_n1816# a_108_1172# a_268_n1036# a_n356_n1036#
+ a_n212_n1772# a_52_1128# a_52_n1816# a_52_n344# a_n212_436# a_108_n1036# a_108_n300#
+ a_268_1172# a_n268_n1080# a_n108_n344# a_n108_1128# a_212_n344# a_212_1128# a_268_n300#
+ a_108_436# a_n356_436# a_212_n1080# a_n108_n1080# a_268_436# a_n356_1172# a_n212_n1036#
+ a_52_392# a_n52_n1772# a_n268_n344# a_n268_1128# a_52_n1080# a_n52_1172# w_n442_n1902#
+ a_n356_n300# a_n108_392# a_n268_392# a_n52_n300# a_n212_1172# a_268_n1772# a_n356_n1772#
+ a_n52_n1036# a_n52_436# a_n268_n1816# a_212_392# a_108_n1772# a_n212_n300#
X0 a_n52_n1036# a_n108_n1080# a_n212_n1036# w_n442_n1902# pfet_03v3 ad=0.78p pd=3.52u as=0.78p ps=3.52u w=3u l=0.28u
X1 a_108_n1772# a_52_n1816# a_n52_n1772# w_n442_n1902# pfet_03v3 ad=0.78p pd=3.52u as=0.78p ps=3.52u w=3u l=0.28u
X2 a_108_n300# a_52_n344# a_n52_n300# w_n442_n1902# pfet_03v3 ad=0.78p pd=3.52u as=0.78p ps=3.52u w=3u l=0.28u
X3 a_268_n300# a_212_n344# a_108_n300# w_n442_n1902# pfet_03v3 ad=1.32p pd=6.88u as=0.78p ps=3.52u w=3u l=0.28u
X4 a_268_n1036# a_212_n1080# a_108_n1036# w_n442_n1902# pfet_03v3 ad=1.32p pd=6.88u as=0.78p ps=3.52u w=3u l=0.28u
X5 a_108_436# a_52_392# a_n52_436# w_n442_n1902# pfet_03v3 ad=0.78p pd=3.52u as=0.78p ps=3.52u w=3u l=0.28u
X6 a_n212_n300# a_n268_n344# a_n356_n300# w_n442_n1902# pfet_03v3 ad=0.78p pd=3.52u as=1.32p ps=6.88u w=3u l=0.28u
X7 a_268_436# a_212_392# a_108_436# w_n442_n1902# pfet_03v3 ad=1.32p pd=6.88u as=0.78p ps=3.52u w=3u l=0.28u
X8 a_n52_n300# a_n108_n344# a_n212_n300# w_n442_n1902# pfet_03v3 ad=0.78p pd=3.52u as=0.78p ps=3.52u w=3u l=0.28u
X9 a_n52_n1772# a_n108_n1816# a_n212_n1772# w_n442_n1902# pfet_03v3 ad=0.78p pd=3.52u as=0.78p ps=3.52u w=3u l=0.28u
X10 a_268_n1772# a_212_n1816# a_108_n1772# w_n442_n1902# pfet_03v3 ad=1.32p pd=6.88u as=0.78p ps=3.52u w=3u l=0.28u
X11 a_108_1172# a_52_1128# a_n52_1172# w_n442_n1902# pfet_03v3 ad=0.78p pd=3.52u as=0.78p ps=3.52u w=3u l=0.28u
X12 a_n212_n1036# a_n268_n1080# a_n356_n1036# w_n442_n1902# pfet_03v3 ad=0.78p pd=3.52u as=1.32p ps=6.88u w=3u l=0.28u
X13 a_268_1172# a_212_1128# a_108_1172# w_n442_n1902# pfet_03v3 ad=1.32p pd=6.88u as=0.78p ps=3.52u w=3u l=0.28u
X14 a_n212_1172# a_n268_1128# a_n356_1172# w_n442_n1902# pfet_03v3 ad=0.78p pd=3.52u as=1.32p ps=6.88u w=3u l=0.28u
X15 a_n52_1172# a_n108_1128# a_n212_1172# w_n442_n1902# pfet_03v3 ad=0.78p pd=3.52u as=0.78p ps=3.52u w=3u l=0.28u
X16 a_n212_n1772# a_n268_n1816# a_n356_n1772# w_n442_n1902# pfet_03v3 ad=0.78p pd=3.52u as=1.32p ps=6.88u w=3u l=0.28u
X17 a_108_n1036# a_52_n1080# a_n52_n1036# w_n442_n1902# pfet_03v3 ad=0.78p pd=3.52u as=0.78p ps=3.52u w=3u l=0.28u
X18 a_n52_436# a_n108_392# a_n212_436# w_n442_n1902# pfet_03v3 ad=0.78p pd=3.52u as=0.78p ps=3.52u w=3u l=0.28u
X19 a_n212_436# a_n268_392# a_n356_436# w_n442_n1902# pfet_03v3 ad=0.78p pd=3.52u as=1.32p ps=6.88u w=3u l=0.28u
.ends

.subckt nmos_3p3_676RTJ a_n372_n300# a_52_n344# a_108_n300# a_n108_n344# a_212_n344#
+ a_268_n300# a_n268_n344# a_372_n344# a_428_n300# a_n52_n300# a_n428_n344# a_n516_n300#
+ a_n212_n300# VSUBS
X0 a_108_n300# a_52_n344# a_n52_n300# VSUBS nfet_03v3 ad=0.78p pd=3.52u as=0.78p ps=3.52u w=3u l=0.28u
X1 a_428_n300# a_372_n344# a_268_n300# VSUBS nfet_03v3 ad=1.32p pd=6.88u as=0.78p ps=3.52u w=3u l=0.28u
X2 a_268_n300# a_212_n344# a_108_n300# VSUBS nfet_03v3 ad=0.78p pd=3.52u as=0.78p ps=3.52u w=3u l=0.28u
X3 a_n212_n300# a_n268_n344# a_n372_n300# VSUBS nfet_03v3 ad=0.78p pd=3.52u as=0.78p ps=3.52u w=3u l=0.28u
X4 a_n52_n300# a_n108_n344# a_n212_n300# VSUBS nfet_03v3 ad=0.78p pd=3.52u as=0.78p ps=3.52u w=3u l=0.28u
X5 a_n372_n300# a_n428_n344# a_n516_n300# VSUBS nfet_03v3 ad=0.78p pd=3.52u as=1.32p ps=6.88u w=3u l=0.28u
.ends

.subckt ppolyf_u_WRMTN3 a_40_n748# a_n200_n748# a_520_646# a_40_646# a_n440_646# w_n864_n932#
+ a_n200_646# a_520_n748# a_n680_n748# a_280_n748# a_n440_n748# a_280_646# a_n680_646#
X0 a_n680_646# a_n680_n748# w_n864_n932# ppolyf_u r_width=0.8u r_length=6.46u
X1 a_280_646# a_280_n748# w_n864_n932# ppolyf_u r_width=0.8u r_length=6.46u
X2 a_520_646# a_520_n748# w_n864_n932# ppolyf_u r_width=0.8u r_length=6.46u
X3 a_40_646# a_40_n748# w_n864_n932# ppolyf_u r_width=0.8u r_length=6.46u
X4 a_n200_646# a_n200_n748# w_n864_n932# ppolyf_u r_width=0.8u r_length=6.46u
X5 a_n440_646# a_n440_n748# w_n864_n932# ppolyf_u r_width=0.8u r_length=6.46u
.ends

.subckt nmos_3p3_M56RTJ a_n28_392# a_28_n1036# a_n116_n1036# a_n28_n1080# a_n116_436#
+ a_28_n300# a_28_436# a_n28_n344# a_n116_n300# VSUBS
X0 a_28_436# a_n28_392# a_n116_436# VSUBS nfet_03v3 ad=1.32p pd=6.88u as=1.32p ps=6.88u w=3u l=0.28u
X1 a_28_n300# a_n28_n344# a_n116_n300# VSUBS nfet_03v3 ad=1.32p pd=6.88u as=1.32p ps=6.88u w=3u l=0.28u
X2 a_28_n1036# a_n28_n1080# a_n116_n1036# VSUBS nfet_03v3 ad=1.32p pd=6.88u as=1.32p ps=6.88u w=3u l=0.28u
.ends

.subckt pmos_3p3_9BLZD7 a_n164_n712# a_n380_n712# a_n268_68# a_n380_760# a_52_n712#
+ a_n468_68# a_n380_n1448# a_n268_804# a_n52_n668# a_n468_n668# a_52_n1448# a_n52_68#
+ a_52_24# a_380_n1404# a_n468_n1404# a_268_n1448# a_164_804# a_n164_n1448# a_164_n1404#
+ a_380_68# a_52_760# a_380_n668# a_164_n668# a_n164_24# a_n164_760# a_n268_n1404#
+ a_268_n712# a_n268_n668# a_n52_804# a_n52_n1404# a_380_804# w_n554_n1534# a_n468_804#
+ a_268_760# a_268_24# a_164_68# a_n380_24#
X0 a_380_804# a_268_760# a_164_804# w_n554_n1534# pfet_03v3 ad=1.32p pd=6.88u as=0.78p ps=3.52u w=3u l=0.56u
X1 a_164_n668# a_52_n712# a_n52_n668# w_n554_n1534# pfet_03v3 ad=0.78p pd=3.52u as=0.78p ps=3.52u w=3u l=0.56u
X2 a_380_n668# a_268_n712# a_164_n668# w_n554_n1534# pfet_03v3 ad=1.32p pd=6.88u as=0.78p ps=3.52u w=3u l=0.56u
X3 a_n268_68# a_n380_24# a_n468_68# w_n554_n1534# pfet_03v3 ad=0.78p pd=3.52u as=1.32p ps=6.88u w=3u l=0.56u
X4 a_380_n1404# a_268_n1448# a_164_n1404# w_n554_n1534# pfet_03v3 ad=1.32p pd=6.88u as=0.78p ps=3.52u w=3u l=0.56u
X5 a_164_804# a_52_760# a_n52_804# w_n554_n1534# pfet_03v3 ad=0.78p pd=3.52u as=0.78p ps=3.52u w=3u l=0.56u
X6 a_n268_n668# a_n380_n712# a_n468_n668# w_n554_n1534# pfet_03v3 ad=0.78p pd=3.52u as=1.32p ps=6.88u w=3u l=0.56u
X7 a_n52_804# a_n164_760# a_n268_804# w_n554_n1534# pfet_03v3 ad=0.78p pd=3.52u as=0.78p ps=3.52u w=3u l=0.56u
X8 a_n52_n668# a_n164_n712# a_n268_n668# w_n554_n1534# pfet_03v3 ad=0.78p pd=3.52u as=0.78p ps=3.52u w=3u l=0.56u
X9 a_n268_n1404# a_n380_n1448# a_n468_n1404# w_n554_n1534# pfet_03v3 ad=0.78p pd=3.52u as=1.32p ps=6.88u w=3u l=0.56u
X10 a_164_68# a_52_24# a_n52_68# w_n554_n1534# pfet_03v3 ad=0.78p pd=3.52u as=0.78p ps=3.52u w=3u l=0.56u
X11 a_n52_68# a_n164_24# a_n268_68# w_n554_n1534# pfet_03v3 ad=0.78p pd=3.52u as=0.78p ps=3.52u w=3u l=0.56u
X12 a_n268_804# a_n380_760# a_n468_804# w_n554_n1534# pfet_03v3 ad=0.78p pd=3.52u as=1.32p ps=6.88u w=3u l=0.56u
X13 a_380_68# a_268_24# a_164_68# w_n554_n1534# pfet_03v3 ad=1.32p pd=6.88u as=0.78p ps=3.52u w=3u l=0.56u
X14 a_n52_n1404# a_n164_n1448# a_n268_n1404# w_n554_n1534# pfet_03v3 ad=0.78p pd=3.52u as=0.78p ps=3.52u w=3u l=0.56u
X15 a_164_n1404# a_52_n1448# a_n52_n1404# w_n554_n1534# pfet_03v3 ad=0.78p pd=3.52u as=0.78p ps=3.52u w=3u l=0.56u
.ends

.subckt nmos_3p3_N3WVC4 a_n188_n736# a_100_336# a_100_n200# a_100_n736# a_n100_n244#
+ a_n100_292# a_n100_n780# a_n188_336# a_n188_n200# VSUBS
X0 a_100_n736# a_n100_n780# a_n188_n736# VSUBS nfet_03v3 ad=0.88p pd=4.88u as=0.88p ps=4.88u w=2u l=1u
X1 a_100_336# a_n100_292# a_n188_336# VSUBS nfet_03v3 ad=0.88p pd=4.88u as=0.88p ps=4.88u w=2u l=1u
X2 a_100_n200# a_n100_n244# a_n188_n200# VSUBS nfet_03v3 ad=0.88p pd=4.88u as=0.88p ps=4.88u w=2u l=1u
.ends

.subckt fold_cascode_opamp_mag VDD VSS VINP VINN OUT VC VD VX VA VB VBS2 VBS3 VBIASN
+ IBIAS2 VBIASN2 IBIAS3 IBIAS OUTo VP c_mid
Xpmos_3p3_9K6RD7_9 VB IBIAS VDD VDD pmos_3p3_9K6RD7
Xpmos_3p3_MA2VAR_1 VDD OUT OUT OUT pmos_3p3_MA2VAR#0
Xpmos_3p3_VK6RD7_3 VDD VBIASN IBIAS VDD pmos_3p3_VK6RD7
Xpmos_3p3_HWZ2RY_2 IBIAS2 VDD IBIAS2 VDD IBIAS2 VDD IBIAS2 pmos_3p3_HWZ2RY
Xpmos_3p3_MA2VAR_28 VDD VD VD VD pmos_3p3_MA2VAR#0