* NGSPICE file created from NOR_Layout_flat.ext - technology: gf180mcuC

.subckt NOR_Layout_flat IN2 IN1 IN4 IN5 IN6 C1 B1 IN7 IN3 IN8 A1 OUT EN VSS VDD
X0 Transmission_Gate_Layout_7.VIN Transmission_Gate_Layout_11.CLK.t2 Transmission_Gate_Layout_3.VIN.t55 VSS.t112 nfet_03v3 ad=0.325p pd=1.77u as=0.325p ps=1.77u w=1.25u l=0.28u
X1 Transmission_Gate_Layout_15.CLKB EN.t0 VSS.t254 VSS.t253 nfet_03v3 ad=0.55p pd=3.38u as=0.55p ps=3.38u w=1.25u l=0.28u
X2 Transmission_Gate_Layout_7.VIN Transmission_Gate_Layout_7.CLKB.t6 Transmission_Gate_Layout_3.VIN.t109 VDD.t106 pfet_03v3 ad=0.65p pd=3.02u as=0.65p ps=3.02u w=2.5u l=0.28u
X3 Transmission_Gate_Layout_1.VIN Transmission_Gate_Layout_11.CLK.t3 Transmission_Gate_Layout_5.VIN.t56 VSS.t117 nfet_03v3 ad=0.55p pd=3.38u as=0.325p ps=1.77u w=1.25u l=0.28u
X4 Transmission_Gate_Layout_6.VIN Transmission_Gate_Layout_9.CLK.t2 Transmission_Gate_Layout_3.VIN.t8 VSS.t48 nfet_03v3 ad=0.325p pd=1.77u as=0.55p ps=3.38u w=1.25u l=0.28u
X5 Transmission_Gate_Layout_13.VIN Transmission_Gate_Layout_2.CLKB.t6 Transmission_Gate_Layout_2.VIN.t82 VDD.t73 pfet_03v3 ad=0.65p pd=3.02u as=0.65p ps=3.02u w=2.5u l=0.28u
X6 Transmission_Gate_Layout_13.CLKB Transmission_Gate_Layout_13.CLK.t2 VSS.t64 VSS.t63 nfet_03v3 ad=0.55p pd=3.38u as=0.55p ps=3.38u w=1.25u l=0.28u
X7 OUT Transmission_Gate_Layout_13.CLKB.t6 Transmission_Gate_Layout_13.VIN.t120 VDD.t47 pfet_03v3 ad=0.65p pd=3.02u as=0.65p ps=3.02u w=2.5u l=0.28u
X8 Transmission_Gate_Layout_9.VOUT Transmission_Gate_Layout_0.CLKB.t6 Transmission_Gate_Layout_12.VIN.t140 VDD.t55 pfet_03v3 ad=0.65p pd=3.02u as=1.1p ps=5.88u w=2.5u l=0.28u
X9 Transmission_Gate_Layout_2.VIN Transmission_Gate_Layout_11.CLKB.t6 Transmission_Gate_Layout_11.VIN.t36 VDD.t3 pfet_03v3 ad=0.65p pd=3.02u as=0.65p ps=3.02u w=2.5u l=0.28u
X10 Transmission_Gate_Layout_12.VIN Transmission_Gate_Layout_1.CLK.t2 Transmission_Gate_Layout_1.VIN.t15 VSS.t36 nfet_03v3 ad=0.325p pd=1.77u as=0.325p ps=1.77u w=1.25u l=0.28u
X11 Transmission_Gate_Layout_6.VIN Transmission_Gate_Layout_9.CLK.t3 Transmission_Gate_Layout_3.VIN.t6 VSS.t55 nfet_03v3 ad=0.325p pd=1.77u as=0.325p ps=1.77u w=1.25u l=0.28u
X12 Non_Ovl_CLK_Gen_Layout_0.NOR_Layout_1.SD1 Transmission_Gate_Layout_13.CLK.t3 Non_Ovl_CLK_Gen_Layout_0.NOR_Layout_1.OUT.t2 VDD.t48 pfet_03v3 ad=0.44p pd=2.88u as=0.26p ps=1.52u w=1u l=0.28u
X13 Transmission_Gate_Layout_4.VIN EN.t1 IN7.t35 VSS.t241 nfet_03v3 ad=0.325p pd=1.77u as=0.325p ps=1.77u w=1.25u l=0.28u
X14 IN2 Transmission_Gate_Layout_18.CLKB.t6 Transmission_Gate_Layout_7.VIN.t0 VDD.t171 pfet_03v3 ad=0.65p pd=3.02u as=0.65p ps=3.02u w=2.5u l=0.28u
X15 VDD Transmission_Gate_Layout_11.CLK.t4 Transmission_Gate_Layout_8.CLKB.t2 VDD.t185 pfet_03v3 ad=1.1p pd=5.88u as=1.1p ps=5.88u w=2.5u l=0.28u
X16 Transmission_Gate_Layout_12.VIN Transmission_Gate_Layout_12.CLK.t2 OUT.t72 VSS.t181 nfet_03v3 ad=0.325p pd=1.77u as=0.325p ps=1.77u w=1.25u l=0.28u
X17 Transmission_Gate_Layout_11.VIN EN.t2 IN4.t47 VSS.t242 nfet_03v3 ad=0.325p pd=1.77u as=0.325p ps=1.77u w=1.25u l=0.28u
X18 Transmission_Gate_Layout_7.VIN Transmission_Gate_Layout_18.CLKB.t7 IN2.t22 VDD.t248 pfet_03v3 ad=0.65p pd=3.02u as=0.65p ps=3.02u w=2.5u l=0.28u
X19 Transmission_Gate_Layout_2.VIN Transmission_Gate_Layout_11.CLKB.t7 Transmission_Gate_Layout_11.VIN.t35 VDD.t144 pfet_03v3 ad=1.1p pd=5.88u as=0.65p ps=3.02u w=2.5u l=0.28u
X20 Transmission_Gate_Layout_13.VIN Transmission_Gate_Layout_3.CLK.t2 Transmission_Gate_Layout_3.VIN.t68 VSS.t156 nfet_03v3 ad=0.325p pd=1.77u as=0.325p ps=1.77u w=1.25u l=0.28u
X21 IN7 EN.t3 Transmission_Gate_Layout_4.VIN.t94 VSS.t240 nfet_03v3 ad=0.325p pd=1.77u as=0.325p ps=1.77u w=1.25u l=0.28u
X22 Transmission_Gate_Layout_3.VIN Transmission_Gate_Layout_9.CLK.t4 Transmission_Gate_Layout_6.VIN.t45 VSS.t43 nfet_03v3 ad=0.325p pd=1.77u as=0.325p ps=1.77u w=1.25u l=0.28u
X23 Transmission_Gate_Layout_10.VIN Transmission_Gate_Layout_14.CLKB.t6 IN3.t23 VDD.t41 pfet_03v3 ad=0.65p pd=3.02u as=0.65p ps=3.02u w=2.5u l=0.28u
X24 Transmission_Gate_Layout_9.VOUT Transmission_Gate_Layout_9.CLKB.t6 Transmission_Gate_Layout_9.VIN.t23 VDD.t59 pfet_03v3 ad=0.65p pd=3.02u as=0.65p ps=3.02u w=2.5u l=0.28u
X25 Transmission_Gate_Layout_4.VIN EN.t4 IN7.t34 VSS.t252 nfet_03v3 ad=0.325p pd=1.77u as=0.325p ps=1.77u w=1.25u l=0.28u
X26 Transmission_Gate_Layout_3.VIN Transmission_Gate_Layout_6.CLKB.t6 Transmission_Gate_Layout_6.VIN.t18 VDD.t83 pfet_03v3 ad=0.65p pd=3.02u as=0.65p ps=3.02u w=2.5u l=0.28u
X27 Transmission_Gate_Layout_9.VOUT Transmission_Gate_Layout_11.CLK.t5 Transmission_Gate_Layout_8.VIN.t71 VSS.t113 nfet_03v3 ad=0.325p pd=1.77u as=0.325p ps=1.77u w=1.25u l=0.28u
X28 Transmission_Gate_Layout_12.VIN Transmission_Gate_Layout_0.CLKB.t7 Transmission_Gate_Layout_9.VOUT.t139 VDD.t11 pfet_03v3 ad=0.65p pd=3.02u as=0.65p ps=3.02u w=2.5u l=0.28u
X29 Non_Ovl_CLK_Gen_Layout_2.Inverter_Layout_2.OUT B1.t0 VDD.t150 VDD.t149 pfet_03v3 ad=0.44p pd=2.88u as=0.44p ps=2.88u w=1u l=0.28u
X30 Transmission_Gate_Layout_10.VIN EN.t5 IN3.t47 VSS.t251 nfet_03v3 ad=0.55p pd=3.38u as=0.325p ps=1.77u w=1.25u l=0.28u
X31 OUT Transmission_Gate_Layout_12.CLKB.t6 Transmission_Gate_Layout_12.VIN.t48 VDD.t92 pfet_03v3 ad=0.65p pd=3.02u as=0.65p ps=3.02u w=2.5u l=0.28u
X32 Transmission_Gate_Layout_4.VIN EN.t6 IN7.t33 VSS.t237 nfet_03v3 ad=0.55p pd=3.38u as=0.325p ps=1.77u w=1.25u l=0.28u
X33 IN1 Transmission_Gate_Layout_16.CLKB.t6 Transmission_Gate_Layout_6.VIN.t60 VDD.t241 pfet_03v3 ad=0.65p pd=3.02u as=0.65p ps=3.02u w=2.5u l=0.28u
X34 Transmission_Gate_Layout_8.VIN EN.t7 IN6.t47 VSS.t238 nfet_03v3 ad=0.325p pd=1.77u as=0.325p ps=1.77u w=1.25u l=0.28u
X35 Transmission_Gate_Layout_10.VIN Transmission_Gate_Layout_14.CLKB.t7 IN3.t22 VDD.t40 pfet_03v3 ad=0.65p pd=3.02u as=0.65p ps=3.02u w=2.5u l=0.28u
X36 Transmission_Gate_Layout_13.VIN Transmission_Gate_Layout_13.CLKB.t7 OUT.t22 VDD.t54 pfet_03v3 ad=0.65p pd=3.02u as=0.65p ps=3.02u w=2.5u l=0.28u
X37 Transmission_Gate_Layout_11.VIN Transmission_Gate_Layout_19.CLKB.t6 IN4.t0 VDD.t154 pfet_03v3 ad=0.65p pd=3.02u as=0.65p ps=3.02u w=2.5u l=0.28u
X38 Transmission_Gate_Layout_3.VIN Transmission_Gate_Layout_9.CLK.t5 Transmission_Gate_Layout_6.VIN.t44 VSS.t54 nfet_03v3 ad=0.325p pd=1.77u as=0.325p ps=1.77u w=1.25u l=0.28u
X39 IN7 EN.t8 Transmission_Gate_Layout_4.VIN.t91 VSS.t239 nfet_03v3 ad=0.325p pd=1.77u as=0.325p ps=1.77u w=1.25u l=0.28u
X40 Transmission_Gate_Layout_1.VIN Transmission_Gate_Layout_1.CLKB.t6 Transmission_Gate_Layout_12.VIN.t49 VDD.t62 pfet_03v3 ad=0.65p pd=3.02u as=0.65p ps=3.02u w=2.5u l=0.28u
X41 IN2 EN.t9 Transmission_Gate_Layout_7.VIN.t48 VSS.t232 nfet_03v3 ad=0.325p pd=1.77u as=0.325p ps=1.77u w=1.25u l=0.28u
X42 Transmission_Gate_Layout_6.VIN Transmission_Gate_Layout_6.CLKB.t7 Transmission_Gate_Layout_3.VIN.t39 VDD.t90 pfet_03v3 ad=0.65p pd=3.02u as=0.65p ps=3.02u w=2.5u l=0.28u
X43 Transmission_Gate_Layout_1.VIN Transmission_Gate_Layout_11.CLK.t6 Transmission_Gate_Layout_5.VIN.t55 VSS.t117 nfet_03v3 ad=0.55p pd=3.38u as=0.325p ps=1.77u w=1.25u l=0.28u
X44 Transmission_Gate_Layout_1.CLKB Transmission_Gate_Layout_1.CLK.t3 VSS.t57 VSS.t17 nfet_03v3 ad=0.55p pd=3.38u as=0.55p ps=3.38u w=1.25u l=0.28u
X45 Transmission_Gate_Layout_1.VIN Transmission_Gate_Layout_5.CLKB.t6 Transmission_Gate_Layout_5.VIN.t22 VDD.t117 pfet_03v3 ad=1.1p pd=5.88u as=0.65p ps=3.02u w=2.5u l=0.28u
X46 Transmission_Gate_Layout_8.VIN Transmission_Gate_Layout_8.CLKB.t6 Transmission_Gate_Layout_9.VOUT.t49 VDD.t53 pfet_03v3 ad=0.65p pd=3.02u as=0.65p ps=3.02u w=2.5u l=0.28u
X47 Transmission_Gate_Layout_2.VIN Transmission_Gate_Layout_10.CLKB.t6 Transmission_Gate_Layout_10.VIN.t46 VDD.t78 pfet_03v3 ad=0.65p pd=3.02u as=0.65p ps=3.02u w=2.5u l=0.28u
X48 Transmission_Gate_Layout_8.VIN Transmission_Gate_Layout_8.CLKB.t7 Transmission_Gate_Layout_9.VOUT.t50 VDD.t58 pfet_03v3 ad=0.65p pd=3.02u as=0.65p ps=3.02u w=2.5u l=0.28u
X49 Transmission_Gate_Layout_12.VIN Transmission_Gate_Layout_1.CLKB.t7 Transmission_Gate_Layout_1.VIN.t38 VDD.t65 pfet_03v3 ad=0.65p pd=3.02u as=0.65p ps=3.02u w=2.5u l=0.28u
X50 Transmission_Gate_Layout_8.VIN Transmission_Gate_Layout_11.CLK.t7 Transmission_Gate_Layout_9.VOUT.t21 VSS.t122 nfet_03v3 ad=0.325p pd=1.77u as=0.55p ps=3.38u w=1.25u l=0.28u
X51 Transmission_Gate_Layout_2.VIN Transmission_Gate_Layout_2.CLKB.t7 Transmission_Gate_Layout_13.VIN.t97 VDD.t71 pfet_03v3 ad=0.65p pd=3.02u as=0.65p ps=3.02u w=2.5u l=0.28u
X52 VSS EN.t10 Transmission_Gate_Layout_18.CLKB.t5 VSS.t233 nfet_03v3 ad=0.55p pd=3.38u as=0.55p ps=3.38u w=1.25u l=0.28u
X53 Transmission_Gate_Layout_11.VIN Transmission_Gate_Layout_19.CLKB.t7 IN4.t1 VDD.t155 pfet_03v3 ad=0.65p pd=3.02u as=0.65p ps=3.02u w=2.5u l=0.28u
X54 Transmission_Gate_Layout_3.VIN Transmission_Gate_Layout_11.CLK.t8 Transmission_Gate_Layout_7.VIN.t23 VSS.t116 nfet_03v3 ad=0.325p pd=1.77u as=0.325p ps=1.77u w=1.25u l=0.28u
X55 Transmission_Gate_Layout_9.VOUT Transmission_Gate_Layout_3.CLK.t3 Transmission_Gate_Layout_12.VIN.t0 VSS.t0 nfet_03v3 ad=0.325p pd=1.77u as=0.325p ps=1.77u w=1.25u l=0.28u
X56 Transmission_Gate_Layout_10.VIN EN.t11 IN3.t46 VSS.t236 nfet_03v3 ad=0.325p pd=1.77u as=0.325p ps=1.77u w=1.25u l=0.28u
X57 IN6 Transmission_Gate_Layout_21.CLKB.t6 Transmission_Gate_Layout_8.VIN.t8 VDD.t43 pfet_03v3 ad=0.65p pd=3.02u as=0.65p ps=3.02u w=2.5u l=0.28u
X58 VDD Transmission_Gate_Layout_12.CLK.t3 Transmission_Gate_Layout_12.CLKB.t2 VDD.t214 pfet_03v3 ad=1.1p pd=5.88u as=1.1p ps=5.88u w=2.5u l=0.28u
X59 Transmission_Gate_Layout_4.VIN Transmission_Gate_Layout_17.CLKB.t6 IN7.t23 VDD.t31 pfet_03v3 ad=0.65p pd=3.02u as=0.65p ps=3.02u w=2.5u l=0.28u
X60 OUT Transmission_Gate_Layout_12.CLK.t4 Transmission_Gate_Layout_12.VIN.t89 VSS.t182 nfet_03v3 ad=0.325p pd=1.77u as=0.325p ps=1.77u w=1.25u l=0.28u
X61 Transmission_Gate_Layout_7.VIN Transmission_Gate_Layout_11.CLK.t9 Transmission_Gate_Layout_3.VIN.t54 VSS.t128 nfet_03v3 ad=0.325p pd=1.77u as=0.325p ps=1.77u w=1.25u l=0.28u
X62 Transmission_Gate_Layout_2.VIN Transmission_Gate_Layout_11.CLK.t10 Transmission_Gate_Layout_11.VIN.t60 VSS.t116 nfet_03v3 ad=0.325p pd=1.77u as=0.325p ps=1.77u w=1.25u l=0.28u
X63 Transmission_Gate_Layout_9.VIN Transmission_Gate_Layout_9.CLK.t6 Transmission_Gate_Layout_9.VOUT.t100 VSS.t53 nfet_03v3 ad=0.325p pd=1.77u as=0.325p ps=1.77u w=1.25u l=0.28u
X64 Transmission_Gate_Layout_11.VIN Transmission_Gate_Layout_11.CLK.t11 Transmission_Gate_Layout_2.VIN.t111 VSS.t131 nfet_03v3 ad=0.325p pd=1.77u as=0.55p ps=3.38u w=1.25u l=0.28u
X65 Transmission_Gate_Layout_9.VIN Transmission_Gate_Layout_9.CLKB.t7 Transmission_Gate_Layout_9.VOUT.t73 VDD.t60 pfet_03v3 ad=0.65p pd=3.02u as=0.65p ps=3.02u w=2.5u l=0.28u
X66 IN2 Transmission_Gate_Layout_18.CLKB.t8 Transmission_Gate_Layout_7.VIN.t26 VDD.t249 pfet_03v3 ad=0.65p pd=3.02u as=0.65p ps=3.02u w=2.5u l=0.28u
X67 IN8 EN.t12 Transmission_Gate_Layout_5.VIN.t95 VSS.t230 nfet_03v3 ad=0.325p pd=1.77u as=0.325p ps=1.77u w=1.25u l=0.28u
X68 Transmission_Gate_Layout_9.VOUT Transmission_Gate_Layout_9.CLK.t7 Transmission_Gate_Layout_9.VIN.t46 VSS.t52 nfet_03v3 ad=0.325p pd=1.77u as=0.325p ps=1.77u w=1.25u l=0.28u
X69 IN5 EN.t13 Transmission_Gate_Layout_9.VIN.t59 VSS.t231 nfet_03v3 ad=0.325p pd=1.77u as=0.325p ps=1.77u w=1.25u l=0.28u
X70 Transmission_Gate_Layout_15.CLKB EN.t14 VDD.t290 VDD.t113 pfet_03v3 ad=1.1p pd=5.88u as=1.1p ps=5.88u w=2.5u l=0.28u
X71 VSS Transmission_Gate_Layout_9.CLK.t8 Non_Ovl_CLK_Gen_Layout_1.NOR_Layout_1.OUT.t3 VSS.t49 nfet_03v3 ad=0.22p pd=1.88u as=0.13p ps=1.02u w=0.5u l=0.28u
X72 Transmission_Gate_Layout_6.VIN Transmission_Gate_Layout_9.CLK.t9 Transmission_Gate_Layout_3.VIN.t7 VSS.t48 nfet_03v3 ad=0.325p pd=1.77u as=0.55p ps=3.38u w=1.25u l=0.28u
X73 Transmission_Gate_Layout_6.VIN Transmission_Gate_Layout_6.CLKB.t8 Transmission_Gate_Layout_3.VIN.t40 VDD.t85 pfet_03v3 ad=0.65p pd=3.02u as=1.1p ps=5.88u w=2.5u l=0.28u
X74 Transmission_Gate_Layout_5.VIN Transmission_Gate_Layout_11.CLK.t12 Transmission_Gate_Layout_1.VIN.t109 VSS.t122 nfet_03v3 ad=0.325p pd=1.77u as=0.55p ps=3.38u w=1.25u l=0.28u
X75 Transmission_Gate_Layout_12.VIN Transmission_Gate_Layout_1.CLK.t4 Transmission_Gate_Layout_1.VIN.t16 VSS.t19 nfet_03v3 ad=0.325p pd=1.77u as=0.325p ps=1.77u w=1.25u l=0.28u
X76 IN7 EN.t15 Transmission_Gate_Layout_4.VIN.t90 VSS.t228 nfet_03v3 ad=0.325p pd=1.77u as=0.325p ps=1.77u w=1.25u l=0.28u
X77 Transmission_Gate_Layout_13.CLKB Transmission_Gate_Layout_13.CLK.t4 VDD.t49 VDD.t14 pfet_03v3 ad=1.1p pd=5.88u as=1.1p ps=5.88u w=2.5u l=0.28u
X78 VDD EN.t16 Transmission_Gate_Layout_21.CLKB.t2 VDD.t258 pfet_03v3 ad=1.1p pd=5.88u as=1.1p ps=5.88u w=2.5u l=0.28u
X79 Transmission_Gate_Layout_9.VIN Transmission_Gate_Layout_9.CLK.t10 Transmission_Gate_Layout_9.VOUT.t99 VSS.t56 nfet_03v3 ad=0.325p pd=1.77u as=0.325p ps=1.77u w=1.25u l=0.28u
X80 Transmission_Gate_Layout_2.VIN Transmission_Gate_Layout_11.CLKB.t8 Transmission_Gate_Layout_11.VIN.t34 VDD.t4 pfet_03v3 ad=0.65p pd=3.02u as=0.65p ps=3.02u w=2.5u l=0.28u
X81 Transmission_Gate_Layout_10.VIN Transmission_Gate_Layout_10.CLKB.t7 Transmission_Gate_Layout_2.VIN.t53 VDD.t74 pfet_03v3 ad=0.65p pd=3.02u as=0.65p ps=3.02u w=2.5u l=0.28u
X82 Transmission_Gate_Layout_12.VIN Transmission_Gate_Layout_12.CLKB.t7 OUT.t31 VDD.t91 pfet_03v3 ad=0.65p pd=3.02u as=0.65p ps=3.02u w=2.5u l=0.28u
X83 Transmission_Gate_Layout_3.VIN Transmission_Gate_Layout_3.CLKB.t6 Transmission_Gate_Layout_13.VIN.t39 VDD.t6 pfet_03v3 ad=0.65p pd=3.02u as=0.65p ps=3.02u w=2.5u l=0.28u
X84 IN7 Transmission_Gate_Layout_17.CLKB.t7 Transmission_Gate_Layout_4.VIN.t53 VDD.t29 pfet_03v3 ad=0.65p pd=3.02u as=0.65p ps=3.02u w=2.5u l=0.28u
X85 Transmission_Gate_Layout_12.VIN Transmission_Gate_Layout_3.CLK.t4 Transmission_Gate_Layout_9.VOUT.t143 VSS.t161 nfet_03v3 ad=0.55p pd=3.38u as=0.325p ps=1.77u w=1.25u l=0.28u
X86 Transmission_Gate_Layout_6.VIN Transmission_Gate_Layout_9.CLK.t11 Transmission_Gate_Layout_3.VIN.t2 VSS.t46 nfet_03v3 ad=0.325p pd=1.77u as=0.325p ps=1.77u w=1.25u l=0.28u
X87 Transmission_Gate_Layout_9.VOUT Transmission_Gate_Layout_8.CLKB.t8 Transmission_Gate_Layout_8.VIN.t45 VDD.t52 pfet_03v3 ad=0.65p pd=3.02u as=0.65p ps=3.02u w=2.5u l=0.28u
X88 Transmission_Gate_Layout_9.VIN Transmission_Gate_Layout_9.CLKB.t8 Transmission_Gate_Layout_9.VOUT.t74 VDD.t61 pfet_03v3 ad=0.65p pd=3.02u as=0.65p ps=3.02u w=2.5u l=0.28u
X89 Transmission_Gate_Layout_6.VIN Transmission_Gate_Layout_6.CLKB.t9 Transmission_Gate_Layout_3.VIN.t41 VDD.t86 pfet_03v3 ad=0.65p pd=3.02u as=0.65p ps=3.02u w=2.5u l=0.28u
X90 Transmission_Gate_Layout_11.VIN Transmission_Gate_Layout_11.CLK.t13 Transmission_Gate_Layout_2.VIN.t110 VSS.t112 nfet_03v3 ad=0.325p pd=1.77u as=0.325p ps=1.77u w=1.25u l=0.28u
X91 Transmission_Gate_Layout_3.CLK Non_Ovl_CLK_Gen_Layout_2.Inv_16x_Layout_0.OUT.t2 VSS.t92 VSS.t91 nfet_03v3 ad=0.176p pd=1.68u as=0.176p ps=1.68u w=0.4u l=0.28u
X92 Transmission_Gate_Layout_2.VIN Transmission_Gate_Layout_11.CLK.t14 Transmission_Gate_Layout_11.VIN.t57 VSS.t123 nfet_03v3 ad=0.325p pd=1.77u as=0.325p ps=1.77u w=1.25u l=0.28u
X93 Transmission_Gate_Layout_1.VIN Transmission_Gate_Layout_1.CLK.t5 Transmission_Gate_Layout_12.VIN.t18 VSS.t16 nfet_03v3 ad=0.325p pd=1.77u as=0.55p ps=3.38u w=1.25u l=0.28u
X94 OUT Transmission_Gate_Layout_12.CLKB.t8 Transmission_Gate_Layout_12.VIN.t33 VDD.t97 pfet_03v3 ad=0.65p pd=3.02u as=0.65p ps=3.02u w=2.5u l=0.28u
X95 IN7 Transmission_Gate_Layout_17.CLKB.t8 Transmission_Gate_Layout_4.VIN.t54 VDD.t30 pfet_03v3 ad=0.65p pd=3.02u as=0.65p ps=3.02u w=2.5u l=0.28u
X96 IN7 Transmission_Gate_Layout_17.CLKB.t9 Transmission_Gate_Layout_4.VIN.t55 VDD.t33 pfet_03v3 ad=0.65p pd=3.02u as=0.65p ps=3.02u w=2.5u l=0.28u
X97 VDD Transmission_Gate_Layout_11.CLK.t15 Transmission_Gate_Layout_5.CLKB.t2 VDD.t182 pfet_03v3 ad=1.1p pd=5.88u as=1.1p ps=5.88u w=2.5u l=0.28u
X98 VDD A1.t0 Non_Ovl_CLK_Gen_Layout_1.NOR_Layout_0.SD1.t3 VDD.t107 pfet_03v3 ad=0.26p pd=1.52u as=0.44p ps=2.88u w=1u l=0.28u
X99 IN5 EN.t17 Transmission_Gate_Layout_9.VIN.t58 VSS.t229 nfet_03v3 ad=0.325p pd=1.77u as=0.55p ps=3.38u w=1.25u l=0.28u
X100 IN8 Transmission_Gate_Layout_20.CLKB.t6 Transmission_Gate_Layout_5.VIN.t24 VDD.t131 pfet_03v3 ad=0.65p pd=3.02u as=1.1p ps=5.88u w=2.5u l=0.28u
X101 VSS Transmission_Gate_Layout_9.CLK.t12 Transmission_Gate_Layout_10.CLKB.t5 VSS.t13 nfet_03v3 ad=0.55p pd=3.38u as=0.55p ps=3.38u w=1.25u l=0.28u
X102 VDD Transmission_Gate_Layout_1.CLK.t6 Transmission_Gate_Layout_2.CLKB.t4 VDD.t19 pfet_03v3 ad=1.1p pd=5.88u as=1.1p ps=5.88u w=2.5u l=0.28u
X103 IN6 Transmission_Gate_Layout_21.CLKB.t7 Transmission_Gate_Layout_8.VIN.t9 VDD.t45 pfet_03v3 ad=0.65p pd=3.02u as=0.65p ps=3.02u w=2.5u l=0.28u
X104 IN6 Transmission_Gate_Layout_21.CLKB.t8 Transmission_Gate_Layout_8.VIN.t10 VDD.t44 pfet_03v3 ad=0.65p pd=3.02u as=1.1p ps=5.88u w=2.5u l=0.28u
X105 Transmission_Gate_Layout_2.VIN Transmission_Gate_Layout_9.CLK.t13 Transmission_Gate_Layout_10.VIN.t71 VSS.t43 nfet_03v3 ad=0.325p pd=1.77u as=0.325p ps=1.77u w=1.25u l=0.28u
X106 Transmission_Gate_Layout_9.VIN Transmission_Gate_Layout_9.CLK.t14 Transmission_Gate_Layout_9.VOUT.t98 VSS.t70 nfet_03v3 ad=0.325p pd=1.77u as=0.325p ps=1.77u w=1.25u l=0.28u
X107 Transmission_Gate_Layout_3.VIN Transmission_Gate_Layout_3.CLK.t5 Transmission_Gate_Layout_13.VIN.t0 VSS.t3 nfet_03v3 ad=0.325p pd=1.77u as=0.325p ps=1.77u w=1.25u l=0.28u
X108 Transmission_Gate_Layout_12.VIN Transmission_Gate_Layout_0.CLKB.t8 Transmission_Gate_Layout_9.VOUT.t138 VDD.t57 pfet_03v3 ad=0.65p pd=3.02u as=0.65p ps=3.02u w=2.5u l=0.28u
X109 Transmission_Gate_Layout_9.VIN EN.t18 IN5.t21 VSS.t224 nfet_03v3 ad=0.325p pd=1.77u as=0.325p ps=1.77u w=1.25u l=0.28u
X110 Transmission_Gate_Layout_10.VIN Transmission_Gate_Layout_14.CLKB.t8 IN3.t21 VDD.t41 pfet_03v3 ad=0.65p pd=3.02u as=0.65p ps=3.02u w=2.5u l=0.28u
X111 Transmission_Gate_Layout_16.CLKB EN.t19 VSS.t226 VSS.t225 nfet_03v3 ad=0.55p pd=3.38u as=0.55p ps=3.38u w=1.25u l=0.28u
X112 IN5 EN.t20 Transmission_Gate_Layout_9.VIN.t57 VSS.t227 nfet_03v3 ad=0.325p pd=1.77u as=0.325p ps=1.77u w=1.25u l=0.28u
X113 OUT Transmission_Gate_Layout_12.CLKB.t9 Transmission_Gate_Layout_12.VIN.t34 VDD.t92 pfet_03v3 ad=0.65p pd=3.02u as=0.65p ps=3.02u w=2.5u l=0.28u
X114 Transmission_Gate_Layout_6.VIN EN.t21 IN1.t47 VSS.t222 nfet_03v3 ad=0.325p pd=1.77u as=0.325p ps=1.77u w=1.25u l=0.28u
X115 Transmission_Gate_Layout_4.CLKB Transmission_Gate_Layout_9.CLK.t15 VDD.t123 VDD.t122 pfet_03v3 ad=1.1p pd=5.88u as=1.1p ps=5.88u w=2.5u l=0.28u
X116 Transmission_Gate_Layout_3.VIN Transmission_Gate_Layout_3.CLK.t6 Transmission_Gate_Layout_13.VIN.t1 VSS.t4 nfet_03v3 ad=0.325p pd=1.77u as=0.325p ps=1.77u w=1.25u l=0.28u
X117 Transmission_Gate_Layout_9.VIN EN.t22 IN5.t19 VSS.t223 nfet_03v3 ad=0.325p pd=1.77u as=0.325p ps=1.77u w=1.25u l=0.28u
X118 Transmission_Gate_Layout_13.VIN Transmission_Gate_Layout_13.CLK.t5 OUT.t71 VSS.t5 nfet_03v3 ad=0.325p pd=1.77u as=0.325p ps=1.77u w=1.25u l=0.28u
X119 Transmission_Gate_Layout_9.VOUT Transmission_Gate_Layout_11.CLK.t16 Transmission_Gate_Layout_8.VIN.t69 VSS.t117 nfet_03v3 ad=0.55p pd=3.38u as=0.325p ps=1.77u w=1.25u l=0.28u
X120 Transmission_Gate_Layout_2.VIN Transmission_Gate_Layout_10.CLKB.t8 Transmission_Gate_Layout_10.VIN.t24 VDD.t72 pfet_03v3 ad=1.1p pd=5.88u as=0.65p ps=3.02u w=2.5u l=0.28u
X121 Transmission_Gate_Layout_1.CLK Non_Ovl_CLK_Gen_Layout_2.Inv_16x_Layout_3.OUT.t2 VSS.t102 VSS.t101 nfet_03v3 ad=0.176p pd=1.68u as=0.176p ps=1.68u w=0.4u l=0.28u
X122 Transmission_Gate_Layout_9.VOUT Transmission_Gate_Layout_9.CLKB.t9 Transmission_Gate_Layout_9.VIN.t20 VDD.t64 pfet_03v3 ad=0.65p pd=3.02u as=0.65p ps=3.02u w=2.5u l=0.28u
X123 Transmission_Gate_Layout_7.VIN Transmission_Gate_Layout_18.CLKB.t9 IN2.t20 VDD.t250 pfet_03v3 ad=0.65p pd=3.02u as=0.65p ps=3.02u w=2.5u l=0.28u
X124 Non_Ovl_CLK_Gen_Layout_1.NOR_Layout_1.OUT Non_Ovl_CLK_Gen_Layout_1.Inverter_Layout_2.OUT.t2 VSS.t108 VSS.t85 nfet_03v3 ad=0.13p pd=1.02u as=0.22p ps=1.88u w=0.5u l=0.28u
X125 Transmission_Gate_Layout_5.VIN Transmission_Gate_Layout_20.CLKB.t7 IN8.t1 VDD.t132 pfet_03v3 ad=0.65p pd=3.02u as=0.65p ps=3.02u w=2.5u l=0.28u
X126 Transmission_Gate_Layout_8.VIN Transmission_Gate_Layout_11.CLK.t17 Transmission_Gate_Layout_9.VOUT.t20 VSS.t133 nfet_03v3 ad=0.325p pd=1.77u as=0.325p ps=1.77u w=1.25u l=0.28u
X127 IN6 EN.t23 Transmission_Gate_Layout_8.VIN.t95 VSS.t221 nfet_03v3 ad=0.325p pd=1.77u as=0.325p ps=1.77u w=1.25u l=0.28u
X128 OUT Transmission_Gate_Layout_13.CLK.t6 Transmission_Gate_Layout_13.VIN.t43 VSS.t7 nfet_03v3 ad=0.325p pd=1.77u as=0.325p ps=1.77u w=1.25u l=0.28u
X129 IN3 Transmission_Gate_Layout_14.CLKB.t9 Transmission_Gate_Layout_10.VIN.t20 VDD.t42 pfet_03v3 ad=0.65p pd=3.02u as=0.65p ps=3.02u w=2.5u l=0.28u
X130 IN4 Transmission_Gate_Layout_19.CLKB.t8 Transmission_Gate_Layout_11.VIN.t2 VDD.t156 pfet_03v3 ad=0.65p pd=3.02u as=0.65p ps=3.02u w=2.5u l=0.28u
X131 Transmission_Gate_Layout_6.VIN EN.t24 IN1.t46 VSS.t219 nfet_03v3 ad=0.325p pd=1.77u as=0.325p ps=1.77u w=1.25u l=0.28u
X132 Transmission_Gate_Layout_12.VIN Transmission_Gate_Layout_12.CLKB.t10 OUT.t34 VDD.t98 pfet_03v3 ad=0.65p pd=3.02u as=0.65p ps=3.02u w=2.5u l=0.28u
X133 Transmission_Gate_Layout_12.VIN Transmission_Gate_Layout_1.CLKB.t8 Transmission_Gate_Layout_1.VIN.t39 VDD.t65 pfet_03v3 ad=0.65p pd=3.02u as=0.65p ps=3.02u w=2.5u l=0.28u
X134 Transmission_Gate_Layout_3.VIN Transmission_Gate_Layout_9.CLK.t16 Transmission_Gate_Layout_6.VIN.t41 VSS.t54 nfet_03v3 ad=0.325p pd=1.77u as=0.325p ps=1.77u w=1.25u l=0.28u
X135 Transmission_Gate_Layout_2.VIN Transmission_Gate_Layout_1.CLK.t7 Transmission_Gate_Layout_13.VIN.t31 VSS.t20 nfet_03v3 ad=0.325p pd=1.77u as=0.325p ps=1.77u w=1.25u l=0.28u
X136 Transmission_Gate_Layout_3.VIN Transmission_Gate_Layout_6.CLKB.t10 Transmission_Gate_Layout_6.VIN.t22 VDD.t88 pfet_03v3 ad=0.65p pd=3.02u as=0.65p ps=3.02u w=2.5u l=0.28u
X137 Transmission_Gate_Layout_12.VIN Transmission_Gate_Layout_3.CLK.t7 Transmission_Gate_Layout_9.VOUT.t141 VSS.t163 nfet_03v3 ad=0.325p pd=1.77u as=0.325p ps=1.77u w=1.25u l=0.28u
X138 Transmission_Gate_Layout_11.VIN Transmission_Gate_Layout_11.CLK.t18 Transmission_Gate_Layout_2.VIN.t109 VSS.t127 nfet_03v3 ad=0.325p pd=1.77u as=0.325p ps=1.77u w=1.25u l=0.28u
X139 Transmission_Gate_Layout_10.VIN Transmission_Gate_Layout_9.CLK.t17 Transmission_Gate_Layout_2.VIN.t143 VSS.t48 nfet_03v3 ad=0.325p pd=1.77u as=0.55p ps=3.38u w=1.25u l=0.28u
X140 Transmission_Gate_Layout_2.VIN Transmission_Gate_Layout_2.CLKB.t8 Transmission_Gate_Layout_13.VIN.t96 VDD.t77 pfet_03v3 ad=0.65p pd=3.02u as=1.1p ps=5.88u w=2.5u l=0.28u
X141 Transmission_Gate_Layout_5.VIN Transmission_Gate_Layout_20.CLKB.t8 IN8.t2 VDD.t133 pfet_03v3 ad=0.65p pd=3.02u as=0.65p ps=3.02u w=2.5u l=0.28u
X142 Transmission_Gate_Layout_8.VIN Transmission_Gate_Layout_21.CLKB.t9 IN6.t11 VDD.t46 pfet_03v3 ad=1.1p pd=5.88u as=0.65p ps=3.02u w=2.5u l=0.28u
X143 Transmission_Gate_Layout_12.VIN Transmission_Gate_Layout_3.CLK.t8 Transmission_Gate_Layout_9.VOUT.t142 VSS.t162 nfet_03v3 ad=0.325p pd=1.77u as=0.325p ps=1.77u w=1.25u l=0.28u
X144 Transmission_Gate_Layout_3.VIN Transmission_Gate_Layout_3.CLKB.t7 Transmission_Gate_Layout_13.VIN.t124 VDD.t8 pfet_03v3 ad=0.65p pd=3.02u as=0.65p ps=3.02u w=2.5u l=0.28u
X145 Transmission_Gate_Layout_8.VIN Transmission_Gate_Layout_21.CLKB.t10 IN6.t12 VDD.t0 pfet_03v3 ad=0.65p pd=3.02u as=0.65p ps=3.02u w=2.5u l=0.28u
X146 Transmission_Gate_Layout_3.VIN Transmission_Gate_Layout_9.CLK.t18 Transmission_Gate_Layout_6.VIN.t40 VSS.t47 nfet_03v3 ad=0.55p pd=3.38u as=0.325p ps=1.77u w=1.25u l=0.28u
X147 Transmission_Gate_Layout_9.VIN Transmission_Gate_Layout_15.CLKB.t6 IN5.t47 VDD.t297 pfet_03v3 ad=0.65p pd=3.02u as=0.65p ps=3.02u w=2.5u l=0.28u
X148 Transmission_Gate_Layout_10.VIN EN.t25 IN3.t45 VSS.t220 nfet_03v3 ad=0.325p pd=1.77u as=0.325p ps=1.77u w=1.25u l=0.28u
X149 Transmission_Gate_Layout_3.VIN Transmission_Gate_Layout_6.CLKB.t11 Transmission_Gate_Layout_6.VIN.t23 VDD.t89 pfet_03v3 ad=1.1p pd=5.88u as=0.65p ps=3.02u w=2.5u l=0.28u
X150 Transmission_Gate_Layout_11.VIN Transmission_Gate_Layout_11.CLK.t19 Transmission_Gate_Layout_2.VIN.t108 VSS.t131 nfet_03v3 ad=0.325p pd=1.77u as=0.55p ps=3.38u w=1.25u l=0.28u
X151 Transmission_Gate_Layout_9.CLKB Transmission_Gate_Layout_9.CLK.t19 VDD.t121 VDD.t24 pfet_03v3 ad=1.1p pd=5.88u as=1.1p ps=5.88u w=2.5u l=0.28u
X152 Transmission_Gate_Layout_3.VIN Transmission_Gate_Layout_3.CLKB.t8 Transmission_Gate_Layout_13.VIN.t125 VDD.t162 pfet_03v3 ad=0.65p pd=3.02u as=1.1p ps=5.88u w=2.5u l=0.28u
X153 IN8 EN.t26 Transmission_Gate_Layout_5.VIN.t94 VSS.t221 nfet_03v3 ad=0.325p pd=1.77u as=0.325p ps=1.77u w=1.25u l=0.28u
X154 Transmission_Gate_Layout_10.VIN Transmission_Gate_Layout_9.CLK.t20 Transmission_Gate_Layout_2.VIN.t142 VSS.t48 nfet_03v3 ad=0.325p pd=1.77u as=0.55p ps=3.38u w=1.25u l=0.28u
X155 IN8 Transmission_Gate_Layout_20.CLKB.t9 Transmission_Gate_Layout_5.VIN.t27 VDD.t134 pfet_03v3 ad=0.65p pd=3.02u as=0.65p ps=3.02u w=2.5u l=0.28u
X156 OUT Transmission_Gate_Layout_13.CLK.t7 Transmission_Gate_Layout_13.VIN.t44 VSS.t6 nfet_03v3 ad=0.325p pd=1.77u as=0.325p ps=1.77u w=1.25u l=0.28u
X157 IN2 Transmission_Gate_Layout_18.CLKB.t10 Transmission_Gate_Layout_7.VIN.t28 VDD.t171 pfet_03v3 ad=0.65p pd=3.02u as=0.65p ps=3.02u w=2.5u l=0.28u
X158 OUT Transmission_Gate_Layout_13.CLKB.t8 Transmission_Gate_Layout_13.VIN.t2 VDD.t12 pfet_03v3 ad=0.65p pd=3.02u as=0.65p ps=3.02u w=2.5u l=0.28u
X159 IN1 EN.t27 Transmission_Gate_Layout_6.VIN.t83 VSS.t216 nfet_03v3 ad=0.325p pd=1.77u as=0.325p ps=1.77u w=1.25u l=0.28u
X160 IN5 Transmission_Gate_Layout_15.CLKB.t7 Transmission_Gate_Layout_9.VIN.t87 VDD.t294 pfet_03v3 ad=0.65p pd=3.02u as=1.1p ps=5.88u w=2.5u l=0.28u
X161 Transmission_Gate_Layout_7.VIN Transmission_Gate_Layout_11.CLK.t20 Transmission_Gate_Layout_3.VIN.t53 VSS.t127 nfet_03v3 ad=0.325p pd=1.77u as=0.325p ps=1.77u w=1.25u l=0.28u
X162 Transmission_Gate_Layout_12.VIN Transmission_Gate_Layout_1.CLK.t8 Transmission_Gate_Layout_1.VIN.t18 VSS.t24 nfet_03v3 ad=0.55p pd=3.38u as=0.325p ps=1.77u w=1.25u l=0.28u
X163 Transmission_Gate_Layout_6.VIN EN.t28 IN1.t44 VSS.t217 nfet_03v3 ad=0.325p pd=1.77u as=0.325p ps=1.77u w=1.25u l=0.28u
X164 IN8 EN.t29 Transmission_Gate_Layout_5.VIN.t93 VSS.t218 nfet_03v3 ad=0.325p pd=1.77u as=0.325p ps=1.77u w=1.25u l=0.28u
X165 VSS Transmission_Gate_Layout_12.CLK.t5 Transmission_Gate_Layout_12.CLKB.t5 VSS.t183 nfet_03v3 ad=0.55p pd=3.38u as=0.55p ps=3.38u w=1.25u l=0.28u
X166 IN8 Transmission_Gate_Layout_20.CLKB.t10 Transmission_Gate_Layout_5.VIN.t28 VDD.t135 pfet_03v3 ad=0.65p pd=3.02u as=0.65p ps=3.02u w=2.5u l=0.28u
X167 Transmission_Gate_Layout_2.VIN Transmission_Gate_Layout_11.CLKB.t9 Transmission_Gate_Layout_11.VIN.t33 VDD.t5 pfet_03v3 ad=0.65p pd=3.02u as=0.65p ps=3.02u w=2.5u l=0.28u
X168 IN1 EN.t30 Transmission_Gate_Layout_6.VIN.t82 VSS.t214 nfet_03v3 ad=0.325p pd=1.77u as=0.55p ps=3.38u w=1.25u l=0.28u
X169 Transmission_Gate_Layout_11.CLKB Transmission_Gate_Layout_11.CLK.t21 VDD.t195 VDD.t180 pfet_03v3 ad=1.1p pd=5.88u as=1.1p ps=5.88u w=2.5u l=0.28u
X170 Transmission_Gate_Layout_13.VIN Transmission_Gate_Layout_1.CLK.t9 Transmission_Gate_Layout_2.VIN.t23 VSS.t25 nfet_03v3 ad=0.325p pd=1.77u as=0.325p ps=1.77u w=1.25u l=0.28u
X171 Transmission_Gate_Layout_3.VIN Transmission_Gate_Layout_3.CLK.t9 Transmission_Gate_Layout_13.VIN.t143 VSS.t165 nfet_03v3 ad=0.325p pd=1.77u as=0.325p ps=1.77u w=1.25u l=0.28u
X172 Transmission_Gate_Layout_3.VIN Transmission_Gate_Layout_3.CLKB.t9 Transmission_Gate_Layout_13.VIN.t126 VDD.t6 pfet_03v3 ad=0.65p pd=3.02u as=0.65p ps=3.02u w=2.5u l=0.28u
X173 Transmission_Gate_Layout_9.VOUT Transmission_Gate_Layout_11.CLK.t22 Transmission_Gate_Layout_8.VIN.t67 VSS.t114 nfet_03v3 ad=0.325p pd=1.77u as=0.325p ps=1.77u w=1.25u l=0.28u
X174 Transmission_Gate_Layout_11.VIN Transmission_Gate_Layout_19.CLKB.t9 IN4.t3 VDD.t154 pfet_03v3 ad=0.65p pd=3.02u as=0.65p ps=3.02u w=2.5u l=0.28u
X175 Transmission_Gate_Layout_10.VIN Transmission_Gate_Layout_9.CLK.t21 Transmission_Gate_Layout_2.VIN.t141 VSS.t46 nfet_03v3 ad=0.325p pd=1.77u as=0.325p ps=1.77u w=1.25u l=0.28u
X176 Transmission_Gate_Layout_16.CLKB EN.t31 VDD.t287 VDD.t85 pfet_03v3 ad=1.1p pd=5.88u as=1.1p ps=5.88u w=2.5u l=0.28u
X177 IN5 Transmission_Gate_Layout_15.CLKB.t8 Transmission_Gate_Layout_9.VIN.t86 VDD.t293 pfet_03v3 ad=0.65p pd=3.02u as=0.65p ps=3.02u w=2.5u l=0.28u
X178 OUT Transmission_Gate_Layout_12.CLKB.t11 Transmission_Gate_Layout_12.VIN.t36 VDD.t94 pfet_03v3 ad=0.65p pd=3.02u as=0.65p ps=3.02u w=2.5u l=0.28u
X179 Transmission_Gate_Layout_13.VIN Transmission_Gate_Layout_3.CLKB.t10 Transmission_Gate_Layout_3.VIN.t92 VDD.t144 pfet_03v3 ad=1.1p pd=5.88u as=0.65p ps=3.02u w=2.5u l=0.28u
X180 Transmission_Gate_Layout_5.VIN Transmission_Gate_Layout_20.CLKB.t11 IN8.t5 VDD.t136 pfet_03v3 ad=1.1p pd=5.88u as=0.65p ps=3.02u w=2.5u l=0.28u
X181 Transmission_Gate_Layout_3.VIN Transmission_Gate_Layout_11.CLK.t23 Transmission_Gate_Layout_7.VIN.t20 VSS.t126 nfet_03v3 ad=0.55p pd=3.38u as=0.325p ps=1.77u w=1.25u l=0.28u
X182 Transmission_Gate_Layout_2.VIN Transmission_Gate_Layout_10.CLKB.t9 Transmission_Gate_Layout_10.VIN.t25 VDD.t73 pfet_03v3 ad=0.65p pd=3.02u as=0.65p ps=3.02u w=2.5u l=0.28u
X183 Transmission_Gate_Layout_4.VIN Transmission_Gate_Layout_9.CLK.t22 Transmission_Gate_Layout_1.VIN.t84 VSS.t56 nfet_03v3 ad=0.325p pd=1.77u as=0.325p ps=1.77u w=1.25u l=0.28u
X184 Transmission_Gate_Layout_8.VIN Transmission_Gate_Layout_8.CLKB.t9 Transmission_Gate_Layout_9.VOUT.t52 VDD.t55 pfet_03v3 ad=0.65p pd=3.02u as=1.1p ps=5.88u w=2.5u l=0.28u
X185 IN5 EN.t32 Transmission_Gate_Layout_9.VIN.t56 VSS.t215 nfet_03v3 ad=0.325p pd=1.77u as=0.325p ps=1.77u w=1.25u l=0.28u
X186 Transmission_Gate_Layout_2.VIN Transmission_Gate_Layout_11.CLK.t24 Transmission_Gate_Layout_11.VIN.t54 VSS.t130 nfet_03v3 ad=0.325p pd=1.77u as=0.325p ps=1.77u w=1.25u l=0.28u
X187 Transmission_Gate_Layout_13.VIN Transmission_Gate_Layout_3.CLKB.t11 Transmission_Gate_Layout_3.VIN.t93 VDD.t3 pfet_03v3 ad=0.65p pd=3.02u as=0.65p ps=3.02u w=2.5u l=0.28u