* NGSPICE file created from 7b_divider_magic_flat.ext - technology: gf180mcuD

.subckt x7b_divider_magic_flat P2 OUT1 D2_6 D2_2 D2_4 Q5 D2_7 D2_5 Q2 D2_1 Q6 Q3 Q4
+ D2_3 CLK LD Q1 VSS VDD Q7
X0 a_2749_684# 7b_counter_0.MDFF_0.mux_magic_3.OR_magic_0.A VDD.t226 VDD.t221 pfet_03v3 ad=0.2912p pd=1.64u as=0.4928p ps=3.12u w=1.12u l=0.56u
X1 VSS.t103 CLK.t0 a_16065_9774# VSS.t102 nfet_03v3 ad=0.2912p pd=1.64u as=0.2912p ps=1.64u w=1.12u l=0.56u
X2 7b_counter_0.MDFF_3.mux_magic_3.OR_magic_0.B a_1209_7469# VDD.t58 VDD.t57 pfet_03v3 ad=0.2912p pd=1.64u as=0.2912p ps=1.64u w=1.12u l=0.56u
X3 7b_counter_0.MDFF_6.QB.t0 a_19152_6440# VDD.t1872 VDD.t1871 pfet_03v3 ad=0.2912p pd=1.64u as=0.4928p ps=3.12u w=1.12u l=0.56u
X4 7b_counter_0.MDFF_1.mux_magic_3.OR_magic_0.B a_15865_3363# VSS.t276 VSS.t275 nfet_03v3 ad=0.4928p pd=3.12u as=0.4928p ps=3.12u w=1.12u l=0.56u
X5 VDD.t315 7b_counter_0.3_inp_AND_magic_0.A a_23985_7877# VDD.t313 pfet_03v3 ad=0.2912p pd=1.64u as=0.4928p ps=3.12u w=1.12u l=0.56u
X6 DFF_magic_0.tg_magic_0.IN CLK.t1 DFF_magic_0.tg_magic_3.OUT VSS.t101 nfet_03v3 ad=0.4928p pd=3.12u as=0.2912p ps=1.64u w=1.12u l=0.56u
X7 7b_counter_0.3_inp_AND_magic_0.C Q3.t3 a_23207_5885# VDD.t1670 pfet_03v3 ad=0.4928p pd=3.12u as=0.2912p ps=1.64u w=1.12u l=0.56u
X8 p3_gen_magic_0.neg_DFF_magic_0.tg_magic_2.OUT p3_gen_magic_0.neg_DFF_magic_0.tg_magic_1.CLK.t6 p3_gen_magic_0.neg_DFF_magic_0.tg_magic_1.IN.t11 VSS.t1229 nfet_03v3 ad=0.4928p pd=3.12u as=0.2912p ps=1.64u w=1.12u l=0.56u
X9 a_1559_n1526# D2_4.t0 p2_gen_magic_0.xnor_magic_3.OUT VDD.t546 pfet_03v3 ad=0.4928p pd=3.12u as=0.2912p ps=1.64u w=1.12u l=0.56u
X10 a_30365_3514# P2.t6 a_30365_4922# VDD.t1473 pfet_03v3 ad=0.4928p pd=3.12u as=0.2912p ps=1.64u w=1.12u l=0.56u
X11 VDD.t466 a_14556_n8142# p3_gen_magic_0.3_inp_AND_magic_0.B VDD.t465 pfet_03v3 ad=0.4928p pd=3.12u as=0.2912p ps=1.64u w=1.12u l=0.56u
X12 p2_gen_magic_0.DFF_magic_0.tg_magic_0.IN p2_gen_magic_0.DFF_magic_0.tg_magic_0.inverter_magic_0.VOUT p2_gen_magic_0.DFF_magic_0.tg_magic_3.OUT VDD.t472 pfet_03v3 ad=0.2912p pd=1.64u as=0.4928p ps=3.12u w=1.12u l=0.56u
X13 VDD.t1672 Q3.t4 p2_gen_magic_0.xnor_magic_3.inverter_magic_1.VOUT VDD.t1671 pfet_03v3 ad=0.2912p pd=1.64u as=0.2912p ps=1.64u w=1.12u l=0.56u
X14 a_6725_2092# 7b_counter_0.MDFF_0.mux_magic_2.OR_magic_0.B a_6725_684# VDD.t661 pfet_03v3 ad=0.4928p pd=3.12u as=0.2912p ps=1.64u w=1.12u l=0.56u
X15 VDD.t2029 p3_gen_magic_0.xnor_magic_1.B.t0 p3_gen_magic_0.xnor_magic_1.inverter_magic_0.VOUT VDD.t2028 pfet_03v3 ad=0.4928p pd=3.12u as=0.2912p ps=1.64u w=1.12u l=0.56u
X16 a_2749_2092# 7b_counter_0.MDFF_0.mux_magic_3.OR_magic_0.B a_2749_684# VDD.t223 pfet_03v3 ad=0.4928p pd=3.12u as=0.2912p ps=1.64u w=1.12u l=0.56u
X17 a_16065_2253# D2_3.t0 VSS.t1183 VSS.t66 nfet_03v3 ad=0.2912p pd=1.64u as=0.2912p ps=1.64u w=1.12u l=0.56u
X18 VDD.t810 7b_counter_0.MDFF_6.mux_magic_3.OR_magic_0.A a_17405_10149# VDD.t806 pfet_03v3 ad=0.2912p pd=1.64u as=0.4928p ps=3.12u w=1.12u l=0.56u
X19 7b_counter_0.MDFF_0.QB.t1 7b_counter_0.MDFF_0.tspc2_magic_0.CLK.t3 a_5515_3947# VSS.t1171 nfet_03v3 ad=0.2912p pd=1.64u as=0.2912p ps=1.64u w=1.12u l=0.56u
X20 p2_gen_magic_0.xnor_magic_1.OUT.t0 p2_gen_magic_0.xnor_magic_1.inverter_magic_0.VOUT a_1541_n4081# VDD.t406 pfet_03v3 ad=0.2912p pd=1.64u as=0.2912p ps=1.64u w=1.12u l=0.56u
X21 VDD.t665 a_23258_1769# 7b_counter_0.MDFF_7.mux_magic_2.OR_magic_0.B VDD.t664 pfet_03v3 ad=0.2912p pd=1.64u as=0.2912p ps=1.64u w=1.12u l=0.56u
X22 a_21381_3524# 7b_counter_0.MDFF_1.mux_magic_2.OR_magic_0.B VSS.t1279 VSS.t273 nfet_03v3 ad=0.4928p pd=3.12u as=0.2912p ps=1.64u w=1.12u l=0.56u
X23 7b_counter_0.MDFF_6.mux_magic_2.OR_magic_0.A a_19841_9774# VDD.t2176 VDD.t2175 pfet_03v3 ad=0.2912p pd=1.64u as=0.2912p ps=1.64u w=1.12u l=0.56u
X24 p3_gen_magic_0.neg_DFF_magic_0.tg_magic_1.IN.t6 p3_gen_magic_0.neg_DFF_magic_0.tg_magic_3.OUT VDD.t421 VDD.t420 pfet_03v3 ad=0.2912p pd=1.64u as=0.2912p ps=1.64u w=1.12u l=0.56u
X25 p3_gen_magic_0.xnor_magic_4.OUT Q2.t3 a_5054_n6471# VSS.t1059 nfet_03v3 ad=0.2912p pd=1.64u as=0.4928p ps=3.12u w=1.12u l=0.56u
X26 p3_gen_magic_0.xnor_magic_6.inverter_magic_0.VOUT D2_6.t0 VDD.t1814 VDD.t1813 pfet_03v3 ad=0.2912p pd=1.64u as=0.4928p ps=3.12u w=1.12u l=0.56u
X27 a_1541_n3597# D2_1.t0 p2_gen_magic_0.xnor_magic_1.OUT VDD.t405 pfet_03v3 ad=0.4928p pd=3.12u as=0.2912p ps=1.64u w=1.12u l=0.56u
X28 VDD.t744 p2_gen_magic_0.3_inp_AND_magic_0.A a_13353_n2115# VDD.t742 pfet_03v3 ad=0.2912p pd=1.64u as=0.4928p ps=3.12u w=1.12u l=0.56u
X29 7b_counter_0.MDFF_5.LD.t5 a_29512_8496.t6 VDD.t1410 VDD.t1409 pfet_03v3 ad=0.4928p pd=3.12u as=0.2912p ps=1.64u w=1.12u l=0.56u
X30 a_12174_n8579# p3_gen_magic_0.xnor_magic_2.inverter_magic_0.VOUT p3_gen_magic_0.AND2_magic_1.A VDD.t549 pfet_03v3 ad=0.4928p pd=3.12u as=0.2912p ps=1.64u w=1.12u l=0.56u
X31 7b_counter_0.MDFF_1.mux_magic_3.OR_magic_0.A a_15865_4557# VSS.t119 VSS.t118 nfet_03v3 ad=0.4928p pd=3.12u as=0.4928p ps=3.12u w=1.12u l=0.56u
X32 a_11279_8697# 7b_counter_0.MDFF_5.mux_magic_3.OR_magic_0.B a_11191_10149# VDD.t45 pfet_03v3 ad=0.2912p pd=1.64u as=0.4928p ps=3.12u w=1.12u l=0.56u
X33 7b_counter_0.MDFF_0.mux_magic_2.OR_magic_0.B a_5185_2253# VDD.t1553 VDD.t1552 pfet_03v3 ad=0.2912p pd=1.64u as=0.2912p ps=1.64u w=1.12u l=0.56u
X34 VDD.t2174 a_19841_9774# 7b_counter_0.MDFF_6.mux_magic_2.OR_magic_0.A VDD.t2173 pfet_03v3 ad=0.4928p pd=3.12u as=0.2912p ps=1.64u w=1.12u l=0.56u
X35 7b_counter_0.MDFF_6.mux_magic_2.AND2_magic_0.A 7b_counter_0.MDFF_5.LD.t9 VDD.t1705 VDD.t1704 pfet_03v3 ad=0.2912p pd=1.64u as=0.4928p ps=3.12u w=1.12u l=0.56u
X36 a_12931_7470# D2_2.t0 VSS.t778 VSS.t60 nfet_03v3 ad=0.2912p pd=1.64u as=0.2912p ps=1.64u w=1.12u l=0.56u
X37 7b_counter_0.MDFF_0.mux_magic_3.OR_magic_0.B a_1209_2253# VDD.t2161 VDD.t2160 pfet_03v3 ad=0.2912p pd=1.64u as=0.2912p ps=1.64u w=1.12u l=0.56u
X38 a_18891_6886# 7b_counter_0.MDFF_6.tspc2_magic_0.CLK a_19152_5956# VDD.t2163 pfet_03v3 ad=0.2912p pd=1.64u as=0.2912p ps=1.64u w=1.12u l=0.56u
X39 7b_counter_0.MDFF_0.mux_magic_2.AND2_magic_0.A LD.t9 VSS.t741 VSS.t740 nfet_03v3 ad=0.2912p pd=1.64u as=0.4928p ps=3.12u w=1.12u l=0.56u
X40 7b_counter_0.MDFF_6.tspc2_magic_0.CLK a_17405_8741# VDD.t371 VDD.t369 pfet_03v3 ad=0.4928p pd=3.12u as=0.4928p ps=3.12u w=1.12u l=0.56u
X41 p2_gen_magic_0.xnor_magic_4.OUT p2_gen_magic_0.xnor_magic_4.inverter_magic_0.VOUT a_5054_n1042# VDD.t373 pfet_03v3 ad=0.2912p pd=1.64u as=0.2912p ps=1.64u w=1.12u l=0.56u
X42 a_26038_4932# 7b_counter_0.MDFF_7.mux_magic_0.OR_magic_0.B a_26126_3480# VDD.t130 pfet_03v3 ad=0.2912p pd=1.64u as=0.2912p ps=1.64u w=1.12u l=0.56u
X43 a_1209_8579# D2_7.t0 VDD.t1950 VDD.t1949 pfet_03v3 ad=0.2912p pd=1.64u as=0.2912p ps=1.64u w=1.12u l=0.56u
X44 VSS.t1117 mux_magic_0.IN2.t3 divide_by_2_0.tg_magic_2.IN VSS.t1116 nfet_03v3 ad=0.4928p pd=3.12u as=0.2912p ps=1.64u w=1.12u l=0.56u
X45 a_24059_4877# 7b_counter_0.MDFF_7.tspc2_magic_0.D VSS.t362 VSS.t361 nfet_03v3 ad=0.4928p pd=3.12u as=0.2912p ps=1.64u w=1.12u l=0.56u
X46 7b_counter_0.MDFF_1.tspc2_magic_0.D a_17405_2092# VDD.t537 VDD.t536 pfet_03v3 ad=0.4928p pd=3.12u as=0.4928p ps=3.12u w=1.12u l=0.56u
X47 p3_gen_magic_0.neg_DFF_magic_0.tg_magic_2.inverter_magic_0.VOUT CLK.t2 VSS.t100 VSS.t99 nfet_03v3 ad=0.2912p pd=1.64u as=0.4928p ps=3.12u w=1.12u l=0.56u
X48 VDD.t1260 7b_counter_0.NAND_magic_0.A.t6 DFF_magic_0.D.t9 VDD.t1259 pfet_03v3 ad=0.2912p pd=1.64u as=0.2912p ps=1.64u w=1.12u l=0.56u
X49 p3_gen_magic_0.xnor_magic_0.inverter_magic_1.VOUT Q1.t3 VDD.t1226 VDD.t1225 pfet_03v3 ad=0.2912p pd=1.64u as=0.2912p ps=1.64u w=1.12u l=0.56u
X50 mux_magic_0.AND2_magic_0.A D2_1.t1 VDD.t1777 VDD.t1776 pfet_03v3 ad=0.4928p pd=3.12u as=0.2912p ps=1.64u w=1.12u l=0.56u
X51 VDD.t1200 7b_counter_0.MDFF_7.tspc2_magic_0.CLK.t3 a_23560_3728# VDD.t531 pfet_03v3 ad=0.4928p pd=3.12u as=0.2912p ps=1.64u w=1.12u l=0.56u
X52 7b_counter_0.DFF_magic_0.tg_magic_1.inverter_magic_0.VOUT CLK.t3 VDD.t1895 VDD.t1894 pfet_03v3 ad=0.2912p pd=1.64u as=0.4928p ps=3.12u w=1.12u l=0.56u
X53 VSS.t843 p3_gen_magic_0.neg_DFF_magic_0.tg_magic_2.OUT p3_gen_magic_0.P3.t5 VSS.t842 nfet_03v3 ad=0.4928p pd=3.12u as=0.2912p ps=1.64u w=1.12u l=0.56u
X54 p2_gen_magic_0.DFF_magic_0.tg_magic_2.OUT CLK.t4 p2_gen_magic_0.DFF_magic_0.tg_magic_1.IN VSS.t98 nfet_03v3 ad=0.4928p pd=3.12u as=0.2912p ps=1.64u w=1.12u l=0.56u
X55 p2_gen_magic_0.DFF_magic_0.tg_magic_1.inverter_magic_0.VOUT CLK.t5 VDD.t1910 VDD.t1909 pfet_03v3 ad=0.2912p pd=1.64u as=0.2912p ps=1.64u w=1.12u l=0.56u
X56 VDD.t1027 7b_counter_0.MDFF_4.LD.t6 7b_counter_0.MDFF_4.mux_magic_0.AND2_magic_0.A VDD.t1026 pfet_03v3 ad=0.2912p pd=1.64u as=0.4928p ps=3.12u w=1.12u l=0.56u
X57 a_19307_6886# 7b_counter_0.MDFF_6.tspc2_magic_0.CLK VSS.t1276 VSS.t1275 nfet_03v3 ad=0.2912p pd=1.64u as=0.2912p ps=1.64u w=1.12u l=0.56u
X58 7b_counter_0.MDFF_4.mux_magic_3.AND2_magic_0.A 7b_counter_0.MDFF_4.LD.t7 VSS.t592 VSS.t591 nfet_03v3 ad=0.2912p pd=1.64u as=0.2912p ps=1.64u w=1.12u l=0.56u
X59 a_7215_10149# 7b_counter_0.MDFF_5.mux_magic_2.OR_magic_0.B a_7303_8697# VDD.t1597 pfet_03v3 ad=0.2912p pd=1.64u as=0.4928p ps=3.12u w=1.12u l=0.56u
X60 a_4496_10093# 7b_counter_0.MDFF_3.tspc2_magic_0.D VDD.t1605 VDD.t1603 pfet_03v3 ad=0.2912p pd=1.64u as=0.2912p ps=1.64u w=1.12u l=0.56u
X61 a_4651_9163# 7b_counter_0.MDFF_3.tspc2_magic_0.CLK.t3 VSS.t678 VSS.t677 nfet_03v3 ad=0.2912p pd=1.64u as=0.2912p ps=1.64u w=1.12u l=0.56u
X62 a_23985_7877# 7b_counter_0.3_inp_AND_magic_0.B VDD.t1639 VDD.t1637 pfet_03v3 ad=0.2912p pd=1.64u as=0.2912p ps=1.64u w=1.12u l=0.56u
X63 VSS.t594 7b_counter_0.MDFF_4.LD.t8 7b_counter_0.MDFF_7.mux_magic_0.AND2_magic_0.A VSS.t593 nfet_03v3 ad=0.2912p pd=1.64u as=0.4928p ps=3.12u w=1.12u l=0.56u
X64 VSS.t97 CLK.t6 p3_gen_magic_0.neg_DFF_magic_0.tg_magic_3.inverter_magic_0.VOUT VSS.t96 nfet_03v3 ad=0.4928p pd=3.12u as=0.2912p ps=1.64u w=1.12u l=0.56u
X65 VSS.t596 7b_counter_0.MDFF_4.LD.t9 7b_counter_0.MDFF_1.mux_magic_2.AND2_magic_0.A VSS.t595 nfet_03v3 ad=0.2912p pd=1.64u as=0.2912p ps=1.64u w=1.12u l=0.56u
X66 p3_gen_magic_0.3_inp_AND_magic_0.C a_16186_n8142# VSS.t923 VSS.t922 nfet_03v3 ad=0.4928p pd=3.12u as=0.4928p ps=3.12u w=1.12u l=0.56u
X67 VSS.t660 D2_5.t0 a_1409_3363# VSS.t31 nfet_03v3 ad=0.2912p pd=1.64u as=0.2912p ps=1.64u w=1.12u l=0.56u
X68 VSS.t1093 divide_by_2_1.tg_magic_3.CLK.t0 divide_by_2_1.tg_magic_3.inverter_magic_0.VOUT VSS.t1092 nfet_03v3 ad=0.4928p pd=3.12u as=0.2912p ps=1.64u w=1.12u l=0.56u
X69 VSS.t924 a_11279_1124# 7b_counter_0.MDFF_4.tspc2_magic_0.D VSS.t148 nfet_03v3 ad=0.4928p pd=3.12u as=0.4928p ps=3.12u w=1.12u l=0.56u
X70 VDD.t1170 D2_5.t1 p3_gen_magic_0.xnor_magic_2.inverter_magic_0.VOUT VDD.t1169 pfet_03v3 ad=0.4928p pd=3.12u as=0.2912p ps=1.64u w=1.12u l=0.56u
X71 p2_gen_magic_0.AND2_magic_1.A D2_5.t2 a_12174_n3597# VDD.t407 pfet_03v3 ad=0.2912p pd=1.64u as=0.2912p ps=1.64u w=1.12u l=0.56u
X72 p3_gen_magic_0.xnor_magic_3.inverter_magic_1.VOUT Q3.t5 VSS.t958 VSS.t957 nfet_03v3 ad=0.2912p pd=1.64u as=0.4928p ps=3.12u w=1.12u l=0.56u
X73 7b_counter_0.MDFF_7.mux_magic_3.AND2_magic_0.A 7b_counter_0.MDFF_4.LD.t10 VSS.t598 VSS.t597 nfet_03v3 ad=0.2912p pd=1.64u as=0.2912p ps=1.64u w=1.12u l=0.56u
X74 VDD.t1029 7b_counter_0.MDFF_4.LD.t11 7b_counter_0.MDFF_4.mux_magic_3.AND2_magic_0.A VDD.t1028 pfet_03v3 ad=0.4928p pd=3.12u as=0.2912p ps=1.64u w=1.12u l=0.56u
X75 a_15865_1059# 7b_counter_0.MDFF_1.mux_magic_0.AND2_magic_0.A VDD.t518 VDD.t517 pfet_03v3 ad=0.2912p pd=1.64u as=0.4928p ps=3.12u w=1.12u l=0.56u
X76 VDD.t1031 7b_counter_0.MDFF_4.LD.t12 7b_counter_0.MDFF_4.mux_magic_2.AND2_magic_0.A VDD.t1030 pfet_03v3 ad=0.4928p pd=3.12u as=0.2912p ps=1.64u w=1.12u l=0.56u
X77 p3_gen_magic_0.xnor_magic_5.inverter_magic_1.VOUT Q6.t3 VDD.t1428 VDD.t1427 pfet_03v3 ad=0.2912p pd=1.64u as=0.2912p ps=1.64u w=1.12u l=0.56u
X78 a_9059_n1973# p2_gen_magic_0.xnor_magic_0.inverter_magic_1.VOUT p2_gen_magic_0.xnor_magic_0.OUT VSS.t250 nfet_03v3 ad=0.2912p pd=1.64u as=0.2912p ps=1.64u w=1.12u l=0.56u
X79 7b_counter_0.MDFF_1.mux_magic_2.AND2_magic_0.A 7b_counter_0.MDFF_4.LD.t13 VDD.t1033 VDD.t1032 pfet_03v3 ad=0.4928p pd=3.12u as=0.2912p ps=1.64u w=1.12u l=0.56u
X80 p3_gen_magic_0.neg_DFF_magic_0.tg_magic_0.IN p3_gen_magic_0.neg_DFF_magic_0.tg_magic_0.inverter_magic_0.VOUT p3_gen_magic_0.neg_DFF_magic_0.tg_magic_3.OUT VDD.t318 pfet_03v3 ad=0.2912p pd=1.64u as=0.4928p ps=3.12u w=1.12u l=0.56u
X81 a_1209_3363# D2_5.t3 VDD.t1172 VDD.t1171 pfet_03v3 ad=0.2912p pd=1.64u as=0.2912p ps=1.64u w=1.12u l=0.56u
X82 p2_gen_magic_0.xnor_magic_4.inverter_magic_1.VOUT Q2.t4 VDD.t1838 VDD.t1837 pfet_03v3 ad=0.2912p pd=1.64u as=0.4928p ps=3.12u w=1.12u l=0.56u
X83 7b_counter_0.MDFF_1.mux_magic_3.AND2_magic_0.A 7b_counter_0.MDFF_4.LD.t14 VDD.t1035 VDD.t1034 pfet_03v3 ad=0.4928p pd=3.12u as=0.2912p ps=1.64u w=1.12u l=0.56u
X84 VDD.t1037 7b_counter_0.MDFF_4.LD.t15 7b_counter_0.MDFF_7.mux_magic_2.AND2_magic_0.A VDD.t1036 pfet_03v3 ad=0.4928p pd=3.12u as=0.2912p ps=1.64u w=1.12u l=0.56u
X85 a_22991_5885# Q1.t4 VDD.t1228 VDD.t1227 pfet_03v3 ad=0.2912p pd=1.64u as=0.4928p ps=3.12u w=1.12u l=0.56u
X86 VDD.t1505 divide_by_2_0.tg_magic_3.CLK.t2 divide_by_2_0.tg_magic_2.inverter_magic_0.VOUT VDD.t1504 pfet_03v3 ad=0.4928p pd=3.12u as=0.2912p ps=1.64u w=1.12u l=0.56u
X87 DFF_magic_0.tg_magic_2.IN DFF_magic_0.tg_magic_2.inverter_magic_0.VOUT DFF_magic_0.tg_magic_2.OUT VDD.t1207 pfet_03v3 ad=0.2912p pd=1.64u as=0.4928p ps=3.12u w=1.12u l=0.56u
X88 VDD.t1219 a_12387_9730# 7b_counter_0.MDFF_5.mux_magic_3.OR_magic_0.A VDD.t1218 pfet_03v3 ad=0.2912p pd=1.64u as=0.2912p ps=1.64u w=1.12u l=0.56u
X89 p2_gen_magic_0.DFF_magic_0.tg_magic_3.CLK.t3 CLK.t7 VDD.t1912 VDD.t1911 pfet_03v3 ad=0.2912p pd=1.64u as=0.2912p ps=1.64u w=1.12u l=0.56u
X90 a_2749_2092# 7b_counter_0.MDFF_0.mux_magic_3.OR_magic_0.B a_2749_684# VDD.t775 pfet_03v3 ad=0.2912p pd=1.64u as=0.2912p ps=1.64u w=1.12u l=0.56u
X91 a_4235_3947# 7b_counter_0.MDFF_0.tspc2_magic_0.CLK.t4 a_4496_4877# VDD.t2023 pfet_03v3 ad=0.2912p pd=1.64u as=0.2912p ps=1.64u w=1.12u l=0.56u
X92 p2_gen_magic_0.DFF_magic_0.tg_magic_2.inverter_magic_0.VOUT p2_gen_magic_0.DFF_magic_0.tg_magic_3.CLK.t6 VSS.t845 VSS.t844 nfet_03v3 ad=0.2912p pd=1.64u as=0.4928p ps=3.12u w=1.12u l=0.56u
X93 a_6725_684# 7b_counter_0.MDFF_0.mux_magic_2.OR_magic_0.B a_6725_2092# VDD.t311 pfet_03v3 ad=0.4928p pd=3.12u as=0.2912p ps=1.64u w=1.12u l=0.56u
X94 VDD.t716 a_5185_1059# 7b_counter_0.MDFF_0.mux_magic_2.OR_magic_0.A VDD.t715 pfet_03v3 ad=0.4928p pd=3.12u as=0.2912p ps=1.64u w=1.12u l=0.56u
X95 VSS.t1080 7b_counter_0.MDFF_0.QB.t2 a_1409_4557# VSS.t1079 nfet_03v3 ad=0.2912p pd=1.64u as=0.2912p ps=1.64u w=1.12u l=0.56u
X96 a_5185_7469# D2_7.t1 VDD.t1952 VDD.t1951 pfet_03v3 ad=0.2912p pd=1.64u as=0.2912p ps=1.64u w=1.12u l=0.56u
X97 VDD.t728 7b_counter_0.MDFF_3.mux_magic_3.AND2_magic_0.A a_1209_6275# VDD.t266 pfet_03v3 ad=0.2912p pd=1.64u as=0.2912p ps=1.64u w=1.12u l=0.56u
X98 VSS.t588 p2_gen_magic_0.DFF_magic_0.tg_magic_2.OUT P2.t5 VSS.t587 nfet_03v3 ad=0.4928p pd=3.12u as=0.2912p ps=1.64u w=1.12u l=0.56u
X99 7b_counter_0.MDFF_3.mux_magic_0.AND2_magic_0.A LD.t10 VSS.t743 VSS.t742 nfet_03v3 ad=0.2912p pd=1.64u as=0.4928p ps=3.12u w=1.12u l=0.56u
X100 7b_counter_0.3_inp_AND_magic_0.VOUT 7b_counter_0.3_inp_AND_magic_0.VOUT 7b_counter_0.3_inp_AND_magic_0.VOUT VDD.t501 pfet_03v3 ad=0.4928p pd=3.12u as=1.9712p ps=12.48u w=1.12u l=0.56u
X101 a_15865_3363# 7b_counter_0.MDFF_4.LD.t16 a_16065_3363# VSS.t599 nfet_03v3 ad=0.4928p pd=3.12u as=0.2912p ps=1.64u w=1.12u l=0.56u
X102 7b_counter_0.DFF_magic_0.tg_magic_0.IN 7b_counter_0.DFF_magic_0.tg_magic_0.inverter_magic_0.VOUT 7b_counter_0.DFF_magic_0.tg_magic_3.OUT VDD.t502 pfet_03v3 ad=0.4928p pd=3.12u as=0.2912p ps=1.64u w=1.12u l=0.56u
X103 VSS.t980 7b_counter_0.MDFF_5.LD.t10 7b_counter_0.MDFF_5.mux_magic_0.AND2_magic_0.A VSS.t979 nfet_03v3 ad=0.4928p pd=3.12u as=0.2912p ps=1.64u w=1.12u l=0.56u
X104 divide_by_2_0.tg_magic_3.inverter_magic_0.VOUT divide_by_2_0.tg_magic_3.CLK.t3 VDD.t1507 VDD.t1506 pfet_03v3 ad=0.2912p pd=1.64u as=0.4928p ps=3.12u w=1.12u l=0.56u
X105 a_8643_n1526# D2_2.t1 p2_gen_magic_0.xnor_magic_0.OUT VDD.t654 pfet_03v3 ad=0.4928p pd=3.12u as=0.2912p ps=1.64u w=1.12u l=0.56u
X106 a_12387_8536# 7b_counter_0.MDFF_5.LD.t11 a_12931_8580# VSS.t981 nfet_03v3 ad=0.4928p pd=3.12u as=0.2912p ps=1.64u w=1.12u l=0.56u
X107 p2_gen_magic_0.xnor_magic_3.OUT.t0 p2_gen_magic_0.xnor_magic_3.inverter_magic_0.VOUT a_1559_n1042# VDD.t547 pfet_03v3 ad=0.2912p pd=1.64u as=0.2912p ps=1.64u w=1.12u l=0.56u
X108 p2_gen_magic_0.xnor_magic_1.OUT.t1 Q7.t3 a_1541_n3150# VSS.t1253 nfet_03v3 ad=0.2912p pd=1.64u as=0.4928p ps=3.12u w=1.12u l=0.56u
X109 p2_gen_magic_0.DFF_magic_0.tg_magic_3.CLK.t5 CLK.t8 VSS.t95 VSS.t94 nfet_03v3 ad=0.2912p pd=1.64u as=0.4928p ps=3.12u w=1.12u l=0.56u
X110 a_8825_1669# 7b_counter_0.MDFF_4.tspc2_magic_0.CLK.t3 7b_counter_0.MDFF_4.QB.t0 VSS.t1247 nfet_03v3 ad=0.2912p pd=1.64u as=0.2912p ps=1.64u w=1.12u l=0.56u
X111 VSS.t93 CLK.t9 7b_counter_0.DFF_magic_0.tg_magic_3.CLK.t5 VSS.t92 nfet_03v3 ad=0.4928p pd=3.12u as=0.2912p ps=1.64u w=1.12u l=0.56u
X112 a_2749_8740# 7b_counter_0.MDFF_3.mux_magic_0.OR_magic_0.B VSS.t112 VSS.t111 nfet_03v3 ad=0.4928p pd=3.12u as=0.2912p ps=1.64u w=1.12u l=0.56u
X113 VDD.t25 p3_gen_magic_0.xnor_magic_4.inverter_magic_1.VOUT a_5054_n5540# VDD.t24 pfet_03v3 ad=0.2912p pd=1.64u as=0.4928p ps=3.12u w=1.12u l=0.56u
X114 7b_counter_0.MDFF_6.mux_magic_0.AND2_magic_0.A 7b_counter_0.MDFF_5.LD.t12 VSS.t983 VSS.t982 nfet_03v3 ad=0.4928p pd=3.12u as=0.2912p ps=1.64u w=1.12u l=0.56u
X115 7b_counter_0.DFF_magic_0.tg_magic_2.inverter_magic_0.VOUT 7b_counter_0.DFF_magic_0.tg_magic_3.CLK.t6 VDD.t972 VDD.t971 pfet_03v3 ad=0.2912p pd=1.64u as=0.2912p ps=1.64u w=1.12u l=0.56u
X116 a_16065_2253# 7b_counter_0.MDFF_4.LD.t17 a_15865_2253# VSS.t600 nfet_03v3 ad=0.2912p pd=1.64u as=0.4928p ps=3.12u w=1.12u l=0.56u
X117 7b_counter_0.MDFF_1.mux_magic_3.OR_magic_0.B a_15865_3363# VDD.t364 VDD.t363 pfet_03v3 ad=0.2912p pd=1.64u as=0.2912p ps=1.64u w=1.12u l=0.56u
X118 a_8411_3319# 7b_counter_0.MDFF_4.LD.t18 VDD.t1039 VDD.t1038 pfet_03v3 ad=0.2912p pd=1.64u as=0.2912p ps=1.64u w=1.12u l=0.56u
X119 VDD.t649 7b_counter_0.MDFF_4.mux_magic_0.OR_magic_0.A a_11191_684# VDD.t648 pfet_03v3 ad=0.4928p pd=3.12u as=0.2912p ps=1.64u w=1.12u l=0.56u
X120 a_1409_1059# Q4.t3 VSS.t873 VSS.t872 nfet_03v3 ad=0.2912p pd=1.64u as=0.2912p ps=1.64u w=1.12u l=0.56u
X121 VDD.t1594 7b_counter_0.MDFF_4.mux_magic_3.AND2_magic_0.A a_12387_4513# VDD.t1593 pfet_03v3 ad=0.4928p pd=3.12u as=0.2912p ps=1.64u w=1.12u l=0.56u
X122 a_11279_3480# 7b_counter_0.MDFF_4.mux_magic_3.OR_magic_0.B a_11191_4932# VDD.t77 pfet_03v3 ad=0.2912p pd=1.64u as=0.4928p ps=3.12u w=1.12u l=0.56u
X123 VDD.t85 7b_counter_0.MDFF_5.mux_magic_0.OR_magic_0.A a_11191_5901# VDD.t84 pfet_03v3 ad=0.4928p pd=3.12u as=0.2912p ps=1.64u w=1.12u l=0.56u
X124 VDD.t1458 OR_magic_2.A.t6 a_30365_4922# VDD.t1457 pfet_03v3 ad=0.2912p pd=1.64u as=0.4928p ps=3.12u w=1.12u l=0.56u
X125 7b_counter_0.DFF_magic_0.tg_magic_3.OUT 7b_counter_0.DFF_magic_0.tg_magic_3.inverter_magic_0.VOUT 7b_counter_0.NAND_magic_0.VOUT VDD.t733 pfet_03v3 ad=0.4928p pd=3.12u as=0.2912p ps=1.64u w=1.12u l=0.56u
X126 a_21381_3524# 7b_counter_0.MDFF_1.mux_magic_2.OR_magic_0.B a_21381_4932# VDD.t2167 pfet_03v3 ad=0.4928p pd=3.12u as=0.2912p ps=1.64u w=1.12u l=0.56u
X127 VSS.t1125 D2_7.t2 p3_gen_magic_0.xnor_magic_5.inverter_magic_0.VOUT VSS.t1124 nfet_03v3 ad=0.4928p pd=3.12u as=0.2912p ps=1.64u w=1.12u l=0.56u
X128 VSS.t91 CLK.t10 DFF_magic_0.tg_magic_0.inverter_magic_0.VOUT VSS.t90 nfet_03v3 ad=0.4928p pd=3.12u as=0.2912p ps=1.64u w=1.12u l=0.56u
X129 p2_gen_magic_0.3_inp_AND_magic_0.A a_11292_n2115# VSS.t474 VSS.t252 nfet_03v3 ad=0.4928p pd=3.12u as=0.2912p ps=1.64u w=1.12u l=0.56u
X130 VDD.t1430 Q6.t4 a_21504_5904# VDD.t1429 pfet_03v3 ad=0.2912p pd=1.64u as=0.4928p ps=3.12u w=1.12u l=0.56u
X131 a_15865_4557# 7b_counter_0.MDFF_1.mux_magic_3.AND2_magic_0.A a_16065_4557# VSS.t911 nfet_03v3 ad=0.4928p pd=3.12u as=0.2912p ps=1.64u w=1.12u l=0.56u
X132 VDD.t116 7b_counter_0.MDFF_7.mux_magic_3.OR_magic_0.A a_26038_684# VDD.t113 pfet_03v3 ad=0.4928p pd=3.12u as=0.2912p ps=1.64u w=1.12u l=0.56u
X133 a_12387_9730# 7b_counter_0.MDFF_5.mux_magic_3.AND2_magic_0.A a_12931_9774# VSS.t171 nfet_03v3 ad=0.4928p pd=3.12u as=0.2912p ps=1.64u w=1.12u l=0.56u
X134 VDD.t1478 p2_gen_magic_0.3_inp_AND_magic_0.C.t1 a_13353_n2115# VDD.t1477 pfet_03v3 ad=0.2912p pd=1.64u as=0.2912p ps=1.64u w=1.12u l=0.56u
X135 a_5185_2253# D2_5.t4 VDD.t1174 VDD.t1173 pfet_03v3 ad=0.2912p pd=1.64u as=0.2912p ps=1.64u w=1.12u l=0.56u
X136 a_13769_n2115# p2_gen_magic_0.3_inp_AND_magic_0.B a_13553_n2115# VSS.t173 nfet_03v3 ad=0.2912p pd=1.64u as=0.2912p ps=1.64u w=1.12u l=0.56u
X137 p2_gen_magic_0.xnor_magic_0.inverter_magic_1.VOUT Q1.t5 VSS.t697 VSS.t696 nfet_03v3 ad=0.2912p pd=1.64u as=0.4928p ps=3.12u w=1.12u l=0.56u
X138 VSS.t329 a_26126_1124# 7b_counter_0.MDFF_7.tspc2_magic_0.CLK.t2 VSS.t178 nfet_03v3 ad=0.4928p pd=3.12u as=0.4928p ps=3.12u w=1.12u l=0.56u
X139 VDD.t1041 7b_counter_0.MDFF_4.LD.t19 7b_counter_0.MDFF_7.mux_magic_0.AND2_magic_0.A VDD.t1040 pfet_03v3 ad=0.4928p pd=3.12u as=0.2912p ps=1.64u w=1.12u l=0.56u
X140 VSS.t331 a_22150_1124# Q4.t2 VSS.t330 nfet_03v3 ad=0.4928p pd=3.12u as=0.4928p ps=3.12u w=1.12u l=0.56u
X141 a_9212_739# 7b_counter_0.MDFF_4.tspc2_magic_0.D VSS.t929 VSS.t928 nfet_03v3 ad=0.4928p pd=3.12u as=0.2912p ps=1.64u w=1.12u l=0.56u
X142 p3_gen_magic_0.3_inp_AND_magic_0.VOUT.t6 a_13353_n6613# VDD.t480 VDD.t478 pfet_03v3 ad=0.4928p pd=3.12u as=0.2912p ps=1.64u w=1.12u l=0.56u
X143 VSS.t1231 p3_gen_magic_0.neg_DFF_magic_0.tg_magic_1.CLK.t7 p3_gen_magic_0.neg_DFF_magic_0.tg_magic_0.inverter_magic_0.VOUT VSS.t1230 nfet_03v3 ad=0.4928p pd=3.12u as=0.2912p ps=1.64u w=1.12u l=0.56u
X144 7b_counter_0.DFF_magic_0.tg_magic_3.OUT 7b_counter_0.DFF_magic_0.tg_magic_3.CLK.t7 7b_counter_0.NAND_magic_0.VOUT VSS.t553 nfet_03v3 ad=0.2912p pd=1.64u as=0.4928p ps=3.12u w=1.12u l=0.56u
X145 VDD.t1559 OR_magic_1.VOUT.t2 divide_by_2_1.tg_magic_0.inverter_magic_0.VOUT VDD.t1558 pfet_03v3 ad=0.2912p pd=1.64u as=0.2912p ps=1.64u w=1.12u l=0.56u
X146 a_24536_3947# a_24059_4877# a_23560_3728# VSS.t364 nfet_03v3 ad=0.2912p pd=1.64u as=0.2912p ps=1.64u w=1.12u l=0.56u
X147 VSS.t291 divide_by_2_0.tg_magic_1.IN divide_by_2_0.tg_magic_0.IN VSS.t290 nfet_03v3 ad=0.4928p pd=3.12u as=0.2912p ps=1.64u w=1.12u l=0.56u
X148 p2_gen_magic_0.DFF_magic_0.tg_magic_0.IN p2_gen_magic_0.DFF_magic_0.tg_magic_0.inverter_magic_0.VOUT p2_gen_magic_0.DFF_magic_0.tg_magic_3.OUT VDD.t471 pfet_03v3 ad=0.4928p pd=3.12u as=0.2912p ps=1.64u w=1.12u l=0.56u
X149 VDD.t2113 p3_gen_magic_0.neg_DFF_magic_0.tg_magic_1.IN.t12 p3_gen_magic_0.neg_DFF_magic_0.tg_magic_0.IN VDD.t2112 pfet_03v3 ad=0.2912p pd=1.64u as=0.2912p ps=1.64u w=1.12u l=0.56u
X150 VDD.t435 p2_gen_magic_0.xnor_magic_1.inverter_magic_1.VOUT a_1541_n4081# VDD.t434 pfet_03v3 ad=0.2912p pd=1.64u as=0.4928p ps=3.12u w=1.12u l=0.56u
X151 VSS.t1208 p2_gen_magic_0.xnor_magic_3.OUT.t2 a_11708_n2115# VSS.t1207 nfet_03v3 ad=0.4928p pd=3.12u as=0.4928p ps=3.12u w=1.12u l=0.56u
X152 VSS.t312 7b_counter_0.MDFF_0.tspc2_magic_0.D a_4235_3947# VSS.t311 nfet_03v3 ad=0.2912p pd=1.64u as=0.4928p ps=3.12u w=1.12u l=0.56u
X153 mux_magic_0.IN2.t0 divide_by_2_0.tg_magic_3.IN.t18 VDD.t1983 VDD.t1982 pfet_03v3 ad=0.2912p pd=1.64u as=0.4928p ps=3.12u w=1.12u l=0.56u
X154 mux_magic_0.AND2_magic_0.A D2_1.t2 VDD.t1779 VDD.t1778 pfet_03v3 ad=0.2912p pd=1.64u as=0.4928p ps=3.12u w=1.12u l=0.56u
X155 VSS.t313 a_11279_6341# 7b_counter_0.MDFF_5.tspc2_magic_0.D VSS.t124 nfet_03v3 ad=0.4928p pd=3.12u as=0.4928p ps=3.12u w=1.12u l=0.56u
X156 p2_gen_magic_0.DFF_magic_0.tg_magic_2.IN p2_gen_magic_0.DFF_magic_0.tg_magic_2.inverter_magic_0.VOUT p2_gen_magic_0.DFF_magic_0.tg_magic_2.OUT VDD.t617 pfet_03v3 ad=0.2912p pd=1.64u as=0.4928p ps=3.12u w=1.12u l=0.56u
X157 p3_gen_magic_0.3_inp_AND_magic_0.C.t0 a_16186_n8142# VDD.t1609 VDD.t1608 pfet_03v3 ad=0.2912p pd=1.64u as=0.2912p ps=1.64u w=1.12u l=0.56u
X158 a_14756_n8142# p3_gen_magic_0.AND2_magic_1.A a_14556_n8142# VSS.t374 nfet_03v3 ad=0.2912p pd=1.64u as=0.4928p ps=3.12u w=1.12u l=0.56u
X159 divide_by_2_0.tg_magic_3.IN.t17 divide_by_2_0.tg_magic_3.inverter_magic_0.VOUT divide_by_2_0.tg_magic_3.OUT VDD.t2018 pfet_03v3 ad=0.2912p pd=1.64u as=0.2912p ps=1.64u w=1.12u l=0.56u
X160 LD.t0 a_27567_8496.t9 VSS.t576 VSS.t575 nfet_03v3 ad=0.4928p pd=3.12u as=0.2912p ps=1.64u w=1.12u l=0.56u
X161 LD.t1 a_27567_8496.t10 VDD.t995 VDD.t994 pfet_03v3 ad=0.4928p pd=3.12u as=0.2912p ps=1.64u w=1.12u l=0.56u
X162 a_11492_n6613# p3_gen_magic_0.xnor_magic_4.OUT a_11708_n6613# VSS.t802 nfet_03v3 ad=0.2912p pd=1.64u as=0.2912p ps=1.64u w=1.12u l=0.56u
X163 7b_counter_0.MDFF_6.mux_magic_2.OR_magic_0.B a_19841_8580# VDD.t346 VDD.t345 pfet_03v3 ad=0.2912p pd=1.64u as=0.2912p ps=1.64u w=1.12u l=0.56u
X164 VSS.t1184 D2_3.t1 a_16065_2253# VSS.t57 nfet_03v3 ad=0.2912p pd=1.64u as=0.2912p ps=1.64u w=1.12u l=0.56u
X165 a_15865_7470# D2_1.t3 VDD.t1781 VDD.t1780 pfet_03v3 ad=0.2912p pd=1.64u as=0.2912p ps=1.64u w=1.12u l=0.56u
X166 VDD.t1229 Q1.t6 a_8643_n1526# VDD.t302 pfet_03v3 ad=0.2912p pd=1.64u as=0.4928p ps=3.12u w=1.12u l=0.56u
X167 7b_counter_0.MDFF_4.LD.t0 a_31440_8496.t9 VDD.t1924 VDD.t1923 pfet_03v3 ad=0.2912p pd=1.64u as=0.4928p ps=3.12u w=1.12u l=0.56u
X168 7b_counter_0.MDFF_7.mux_magic_2.OR_magic_0.B a_23258_1769# VDD.t663 VDD.t662 pfet_03v3 ad=0.2912p pd=1.64u as=0.4928p ps=3.12u w=1.12u l=0.56u
X169 VSS.t274 7b_counter_0.MDFF_1.mux_magic_2.OR_magic_0.A a_21381_3524# VSS.t273 nfet_03v3 ad=0.2912p pd=1.64u as=0.4928p ps=3.12u w=1.12u l=0.56u
X170 7b_counter_0.3_inp_AND_magic_0.C Q3.t6 a_23207_5885# VDD.t1673 pfet_03v3 ad=0.4928p pd=3.12u as=0.2912p ps=1.64u w=1.12u l=0.56u
X171 VSS.t1042 D2_6.t1 p2_gen_magic_0.xnor_magic_6.inverter_magic_0.VOUT VSS.t1041 nfet_03v3 ad=0.4928p pd=3.12u as=0.2912p ps=1.64u w=1.12u l=0.56u
X172 a_17405_10149# 7b_counter_0.MDFF_6.mux_magic_3.OR_magic_0.B a_17405_8741# VDD.t369 pfet_03v3 ad=0.4928p pd=3.12u as=0.2912p ps=1.64u w=1.12u l=0.56u
X173 a_5452_n7648# p3_gen_magic_0.xnor_magic_5.inverter_magic_1.VOUT p3_gen_magic_0.xnor_magic_5.OUT.t1 VSS.t249 nfet_03v3 ad=0.2912p pd=1.64u as=0.2912p ps=1.64u w=1.12u l=0.56u
X174 a_5185_1059# 7b_counter_0.MDFF_0.mux_magic_2.AND2_magic_0.A VDD.t368 VDD.t367 pfet_03v3 ad=0.2912p pd=1.64u as=0.4928p ps=3.12u w=1.12u l=0.56u
X175 VDD.t431 7b_counter_0.MDFF_7.mux_magic_2.OR_magic_0.A a_22062_684# VDD.t426 pfet_03v3 ad=0.4928p pd=3.12u as=0.2912p ps=1.64u w=1.12u l=0.56u
X176 a_20041_8580# D2_1.t4 VSS.t1018 VSS.t1017 nfet_03v3 ad=0.2912p pd=1.64u as=0.2912p ps=1.64u w=1.12u l=0.56u
X177 VDD.t1043 7b_counter_0.MDFF_4.LD.t20 7b_counter_0.MDFF_4.mux_magic_3.AND2_magic_0.A VDD.t1042 pfet_03v3 ad=0.2912p pd=1.64u as=0.4928p ps=3.12u w=1.12u l=0.56u
X178 VDD.t1412 a_29512_8496.t7 7b_counter_0.MDFF_5.LD.t4 VDD.t1411 pfet_03v3 ad=0.2912p pd=1.64u as=0.2912p ps=1.64u w=1.12u l=0.56u
X179 VDD.t1521 Q4.t4 a_1209_1059# VDD.t1520 pfet_03v3 ad=0.2912p pd=1.64u as=0.2912p ps=1.64u w=1.12u l=0.56u
X180 VDD.t1162 divide_by_2_1.tg_magic_3.IN.t18 mux_magic_0.IN1.t3 VDD.t1161 pfet_03v3 ad=0.4928p pd=3.12u as=0.2912p ps=1.64u w=1.12u l=0.56u
X181 VSS.t803 p3_gen_magic_0.xnor_magic_3.OUT.t2 a_11708_n6613# VSS.t802 nfet_03v3 ad=0.2912p pd=1.64u as=0.2912p ps=1.64u w=1.12u l=0.56u
X182 divide_by_2_1.tg_magic_1.IN divide_by_2_1.tg_magic_3.OUT VDD.t255 VDD.t254 pfet_03v3 ad=0.2912p pd=1.64u as=0.4928p ps=3.12u w=1.12u l=0.56u
X183 VDD.t1307 LD.t11 7b_counter_0.MDFF_0.mux_magic_0.AND2_magic_0.A VDD.t1306 pfet_03v3 ad=0.2912p pd=1.64u as=0.2912p ps=1.64u w=1.12u l=0.56u
X184 VDD.t1783 D2_1.t5 p3_gen_magic_0.inverter_magic_0.VOUT VDD.t1782 pfet_03v3 ad=0.2912p pd=1.64u as=0.2912p ps=1.64u w=1.12u l=0.56u
X185 VDD.t430 7b_counter_0.MDFF_7.mux_magic_2.OR_magic_0.A a_22062_684# VDD.t429 pfet_03v3 ad=0.2912p pd=1.64u as=0.2912p ps=1.64u w=1.12u l=0.56u
X186 VDD.t1918 CLK.t11 DFF_magic_0.tg_magic_1.inverter_magic_0.VOUT VDD.t1917 pfet_03v3 ad=0.4928p pd=3.12u as=0.2912p ps=1.64u w=1.12u l=0.56u
X187 7b_counter_0.MDFF_6.mux_magic_0.OR_magic_0.A a_15865_6276# VDD.t93 VDD.t35 pfet_03v3 ad=0.2912p pd=1.64u as=0.2912p ps=1.64u w=1.12u l=0.56u
X188 divide_by_2_0.tg_magic_3.IN.t9 divide_by_2_0.tg_magic_3.CLK.t4 divide_by_2_0.tg_magic_2.IN VSS.t858 nfet_03v3 ad=0.2912p pd=1.64u as=0.2912p ps=1.64u w=1.12u l=0.56u
X189 a_17405_2092# 7b_counter_0.MDFF_1.mux_magic_0.OR_magic_0.B a_17405_684# VDD.t102 pfet_03v3 ad=0.4928p pd=3.12u as=0.2912p ps=1.64u w=1.12u l=0.56u
X190 VSS.t779 D2_2.t2 a_12931_7470# VSS.t55 nfet_03v3 ad=0.2912p pd=1.64u as=0.2912p ps=1.64u w=1.12u l=0.56u
X191 p3_gen_magic_0.xnor_magic_6.OUT p3_gen_magic_0.xnor_magic_6.inverter_magic_0.VOUT a_8523_n8579# VDD.t1621 pfet_03v3 ad=0.2912p pd=1.64u as=0.2912p ps=1.64u w=1.12u l=0.56u
X192 VSS.t1186 D2_3.t2 p2_gen_magic_0.xnor_magic_4.inverter_magic_0.VOUT VSS.t1185 nfet_03v3 ad=0.4928p pd=3.12u as=0.2912p ps=1.64u w=1.12u l=0.56u
X193 VSS.t1020 D2_1.t6 mux_magic_0.AND2_magic_0.A VSS.t1019 nfet_03v3 ad=0.2912p pd=1.64u as=0.2912p ps=1.64u w=1.12u l=0.56u
X194 DFF_magic_0.D.t2 DFF_magic_0.tg_magic_3.inverter_magic_0.VOUT DFF_magic_0.tg_magic_3.OUT VDD.t229 pfet_03v3 ad=0.2912p pd=1.64u as=0.2912p ps=1.64u w=1.12u l=0.56u
X195 a_17405_7309# 7b_counter_0.MDFF_6.mux_magic_0.OR_magic_0.B a_17405_5901# VDD.t232 pfet_03v3 ad=0.4928p pd=3.12u as=0.2912p ps=1.64u w=1.12u l=0.56u
X196 VDD.t1523 Q4.t5 p3_gen_magic_0.xnor_magic_2.inverter_magic_1.VOUT VDD.t1522 pfet_03v3 ad=0.2912p pd=1.64u as=0.2912p ps=1.64u w=1.12u l=0.56u
X197 VDD.t1309 LD.t12 7b_counter_0.MDFF_3.mux_magic_2.AND2_magic_0.A VDD.t1308 pfet_03v3 ad=0.2912p pd=1.64u as=0.2912p ps=1.64u w=1.12u l=0.56u
X198 7b_counter_0.MDFF_0.mux_magic_2.AND2_magic_0.A LD.t13 VDD.t1311 VDD.t1310 pfet_03v3 ad=0.4928p pd=3.12u as=0.2912p ps=1.64u w=1.12u l=0.56u
X199 VDD.t988 7b_counter_0.MDFF_4.QB.t2 a_12387_575# VDD.t987 pfet_03v3 ad=0.2912p pd=1.64u as=0.2912p ps=1.64u w=1.12u l=0.56u
X200 a_19841_4557# 7b_counter_0.MDFF_1.tspc2_magic_0.Q VDD.t275 VDD.t274 pfet_03v3 ad=0.2912p pd=1.64u as=0.2912p ps=1.64u w=1.12u l=0.56u