* NGSPICE file created from PLL_TOP_MUX_flat.ext - technology: gf180mcuC

.subckt PLL_TOP_MUX_flat S3 S2 S6 UP_INPUT PRE_SCALAR ITAIL1 OUTB VCTRL_IN S4 ITAIL
+ DIV_OUT DN_INPUT UP DN S1 VCTRL2 F_IN OUT VSS VDD
X0 a_42928_8770# a_43228_8148# VDD.t9 ppolyf_u r_width=1.1u r_length=2.6u
X1 RES_74k_1.M VSS.t415 cap_mim_2f0_m4m5_noshield c_width=31u c_length=29u
X2 PFD_T2_0.INV_mag_1.OUT PFD_T2_0.INV_mag_1.IN VSS.t425 VSS.t424 nfet_03v3 ad=0.22p pd=1.88u as=0.22p ps=1.88u w=0.5u l=0.5u
X3 PFD_T2_0.Buffer_V_2_0.IN PFD_T2_0.INV_mag_1.IN VDD.t419 VDD.t264 pfet_03v3 ad=0.13p pd=1.02u as=0.13p ps=1.02u w=0.5u l=0.5u
X4 a_24437_9224# PFD_T2_0.INV_mag_0.IN VDD.t444 VDD.t443 pfet_03v3 ad=0.13p pd=1.02u as=0.13p ps=1.02u w=0.5u l=0.5u
X5 VCO_DFF_C_0.VCO_C_0.INV_2_5.OUT VCO_DFF_C_0.VCO_C_0.INV_2_5.IN VSS.t134 VSS.t133 nfet_03v3 ad=0.13p pd=1.02u as=0.22p ps=1.88u w=0.5u l=0.5u
X6 a_25706_n567# VCTRL2.t0 VSS.t149 VSS.t148 nfet_03v3 ad=0.13p pd=1.02u as=0.22p ps=1.88u w=0.5u l=0.84u
X7 a_27875_9714# DN_INPUT.t0 VDD.t256 VDD.t255 pfet_03v3 ad=0.291p pd=1.64u as=0.291p ps=1.64u w=1.12u l=0.56u
X8 VCO_DFF_C_0.VCO_C_0.INV_2_0.IN VCO_DFF_C_0.VCO_C_0.INV_2_5.IN VDD.t360 VDD.t320 pfet_03v3 ad=0.13p pd=1.02u as=0.13p ps=1.02u w=0.5u l=0.84u
X9 RES_74k_1.M VSS.t414 cap_mim_2f0_m4m5_noshield c_width=31u c_length=29u
X10 VSS VCO_DFF_C_0.VCO_C_0.INV_2_3.IN VCO_DFF_C_0.VCO_C_0.INV_2_3.OUT VSS.t622 nfet_03v3 ad=0.22p pd=1.88u as=0.13p ps=1.02u w=0.5u l=0.5u
X11 VSS VCTRL2.t1 a_25706_n567# VSS.t150 nfet_03v3 ad=0.13p pd=1.02u as=0.13p ps=1.02u w=0.5u l=0.84u
X12 VSS mux_magic_3.OR_magic_0.A a_21443_9476# VSS.t726 nfet_03v3 ad=0.291p pd=1.64u as=0.493p ps=3.12u w=1.12u l=0.56u
X13 a_43528_12082# a_43828_11460# VDD.t4 ppolyf_u r_width=1.1u r_length=2.6u
X14 a_19897_11741# mux_magic_2.AND2_magic_0.A a_20097_11741# VSS.t662 nfet_03v3 ad=0.493p pd=3.12u as=0.291p ps=1.64u w=1.12u l=0.56u
X15 VDD VCO_DFF_C_0.VCO_C_0.INV_2_0.IN VCO_DFF_C_0.VCO_C_0.INV_2_5.IN VDD.t338 pfet_03v3 ad=0.13p pd=1.02u as=0.22p ps=1.88u w=0.5u l=0.84u
X16 VSS PFD_T2_0.Buffer_V_2_0.IN a_25557_8739# VSS.t166 nfet_03v3 ad=0.13p pd=1.02u as=0.22p ps=1.88u w=0.5u l=0.5u
X17 a_34443_2598# VCTRL2.t2 VSS.t154 VSS.t153 nfet_03v3 ad=0.13p pd=1.02u as=0.13p ps=1.02u w=0.5u l=0.84u
X18 VSS.t283 VSS.t281 VSS.t283 VSS.t282 nfet_03v3 ad=0.22p pd=1.88u as=0 ps=0 w=0.5u l=0.84u
X19 RES_74k_1.M VSS.t413 cap_mim_2f0_m4m5_noshield c_width=31u c_length=29u
X20 RES_74k_1.M VSS.t412 cap_mim_2f0_m4m5_noshield c_width=31u c_length=29u
X21 RES_74k_1.P RES_74k_1.P VDD.t6 ppolyf_u r_width=1.1u r_length=2.6u
X22 RES_74k_1.P A_MUX_0.Tr_Gate_1.CLK VCO_DFF_C_0.VCTRL VSS.t108 nfet_03v3 ad=0.218p pd=1.36u as=0.37p ps=2.56u w=0.84u l=0.5u
X23 VDD a_22967_8787# PFD_T2_0.INV_mag_1.IN VDD.t288 pfet_03v3 ad=0.13p pd=1.02u as=0.13p ps=1.02u w=0.5u l=0.5u
X24 RES_74k_1.P RES_74k_1.P VDD.t9 ppolyf_u r_width=1.1u r_length=2.6u
X25 VSS VCTRL2.t3 a_34443_2598# VSS.t155 nfet_03v3 ad=0.13p pd=1.02u as=0.13p ps=1.02u w=0.5u l=0.84u
X26 a_21443_8068# mux_magic_3.OR_magic_0.A VDD.t787 VDD.t783 pfet_03v3 ad=0.291p pd=1.64u as=0.493p ps=3.12u w=1.12u l=0.56u
X27 RES_74k_1.M VSS.t411 cap_mim_2f0_m4m5_noshield c_width=31u c_length=29u
X28 VSS VCO_DFF_C_0.VCO_C_0.INV_2_3.OUT VCO_DFF_C_0.VCO_C_0.OUTB VSS.t756 nfet_03v3 ad=0.22p pd=1.88u as=0.13p ps=1.02u w=0.5u l=0.5u
X29 VSS S6.t0 mux_magic_3.AND2_magic_0.A VSS.t169 nfet_03v3 ad=0.291p pd=1.64u as=0.291p ps=1.64u w=1.12u l=0.56u
X30 a_29415_8145# mux_magic_1.OR_magic_0.B a_29415_9553# VDD.t474 pfet_03v3 ad=0.493p pd=3.12u as=0.291p ps=1.64u w=1.12u l=0.56u
X31 VCO_DFF_C_0.DFF_3_mag_0.Tr_Gate_0.IN OUT.t12 VSS.t765 VSS.t625 nfet_03v3 ad=0.13p pd=1.02u as=0.13p ps=1.02u w=0.5u l=0.5u
X32 a_25706_n567# VCTRL2.t4 VSS.t159 VSS.t158 nfet_03v3 ad=0.13p pd=1.02u as=0.13p ps=1.02u w=0.5u l=0.84u
X33 VDD a_22967_8787# PFD_T2_0.INV_mag_1.IN VDD.t285 pfet_03v3 ad=0.13p pd=1.02u as=0.13p ps=1.02u w=0.5u l=0.5u
X34 a_43828_11254# a_43528_10632# VDD.t4 ppolyf_u r_width=1.1u r_length=2.6u
X35 VSS VCO_DFF_C_0.DFF_3_mag_0.Tr_Gate_0.OUT OUT.t11 VSS.t630 nfet_03v3 ad=0.22p pd=1.88u as=0.13p ps=1.02u w=0.5u l=0.5u
X36 VCO_DFF_C_0.VCO_C_0.INV_2_2.IN VCO_DFF_C_0.VCTRL VDD.t180 VDD.t147 pfet_03v3 ad=0.22p pd=1.88u as=0.13p ps=1.02u w=0.5u l=0.84u
X37 VSS PFD_T2_0.INV_mag_1.OUT a_22879_10704# VSS.t5 nfet_03v3 ad=0.22p pd=1.88u as=0.13p ps=1.02u w=0.5u l=0.5u
X38 PFD_T2_0.INV_mag_1.OUT PFD_T2_0.INV_mag_1.IN VDD.t418 VDD.t417 pfet_03v3 ad=0.13p pd=1.02u as=0.22p ps=1.88u w=0.5u l=0.5u
X39 VDD.t244 VDD.t242 VDD.t244 VDD.t243 pfet_03v3 ad=0.22p pd=1.88u as=0 ps=0 w=0.5u l=0.84u
X40 VCO_DFF_C_0.VCO_C_0.INV_2_3.IN VCO_DFF_C_0.VCO_C_0.INV_2_2.IN VDD.t706 VDD.t575 pfet_03v3 ad=0.22p pd=1.88u as=0.13p ps=1.02u w=0.5u l=0.84u
X41 VDD.t241 VDD.t240 VDD.t241 VDD.t182 pfet_03v3 ad=0.22p pd=1.88u as=0 ps=0 w=0.5u l=0.84u
X42 RES_74k_1.M VSS.t410 cap_mim_2f0_m4m5_noshield c_width=31u c_length=29u
X43 a_27875_8520# mux_magic_1.AND2_magic_0.A VDD.t381 VDD.t380 pfet_03v3 ad=0.291p pd=1.64u as=0.493p ps=3.12u w=1.12u l=0.56u
X44 VSS.t280 VSS.t279 VSS.t280 VSS.t218 nfet_03v3 ad=0.22p pd=1.88u as=0 ps=0 w=0.5u l=0.84u
X45 VCO_DFF_C_0.VCO_C_0.INV_2_3.IN VCO_DFF_C_0.VCO_C_0.INV_2_5.OUT a_34443_2598# VSS.t503 nfet_03v3 ad=0.22p pd=1.88u as=0.13p ps=1.02u w=0.5u l=0.84u
X46 VCO_DFF_C_0.VCO_C_0.INV_2_5.IN VCO_DFF_C_0.VCO_C_0.INV_2_0.IN VDD.t520 VDD.t320 pfet_03v3 ad=0.13p pd=1.02u as=0.13p ps=1.02u w=0.5u l=0.84u
X47 VCO_DFF_C_0.VCO_C_0.INV_2_5.IN VCO_DFF_C_0.VCTRL VDD.t179 VDD.t152 pfet_03v3 ad=0.13p pd=1.02u as=0.13p ps=1.02u w=0.5u l=0.84u
X48 VDD VCO_DFF_C_0.VCO_C_0.INV_2_5.IN VCO_DFF_C_0.VCO_C_0.INV_2_0.IN VDD.t338 pfet_03v3 ad=0.13p pd=1.02u as=0.22p ps=1.88u w=0.5u l=0.84u
X49 VDD.t239 VDD.t237 VDD.t239 VDD.t238 pfet_03v3 ad=0.22p pd=1.88u as=0 ps=0 w=0.5u l=0.84u
X50 RES_74k_1.M VSS.t409 cap_mim_2f0_m4m5_noshield c_width=31u c_length=29u
X51 mux_magic_2.OR_magic_0.B a_19897_10547# VDD.t544 VDD.t543 pfet_03v3 ad=0.291p pd=1.64u as=0.291p ps=1.64u w=1.12u l=0.56u
X52 RES_74k_1.M VSS.t408 cap_mim_2f0_m4m5_noshield c_width=31u c_length=29u
X53 a_22966_11778# PFD_T2_0.INV_mag_0.OUT a_22879_10704# VSS.t701 nfet_03v3 ad=0.13p pd=1.02u as=0.22p ps=1.88u w=0.5u l=0.5u
X54 a_27875_9714# S3.t0 VDD.t796 VDD.t795 pfet_03v3 ad=0.291p pd=1.64u as=0.493p ps=3.12u w=1.12u l=0.56u
X55 VCO_DFF_C_0.VCO_C_0.INV_2_2.IN VCO_DFF_C_0.VCO_C_0.INV_2_0.OUT a_34443_2598# VSS.t93 nfet_03v3 ad=0.22p pd=1.88u as=0.13p ps=1.02u w=0.5u l=0.84u
X56 a_34443_2598# VCTRL2.t5 VSS.t161 VSS.t160 nfet_03v3 ad=0.13p pd=1.02u as=0.13p ps=1.02u w=0.5u l=0.84u
X57 RES_74k_1.M VSS.t407 cap_mim_2f0_m4m5_noshield c_width=31u c_length=29u
X58 VDD VCO_DFF_C_0.VCO_C_0.INV_2_5.IN VCO_DFF_C_0.VCO_C_0.INV_2_0.IN VDD.t347 pfet_03v3 ad=0.13p pd=1.02u as=0.22p ps=1.88u w=0.5u l=0.84u
X59 VSS VCTRL2.t6 a_34443_2598# VSS.t162 nfet_03v3 ad=0.13p pd=1.02u as=0.13p ps=1.02u w=0.5u l=0.84u
X60 VSS VCO_DFF_C_0.DFF_3_mag_0.Tr_Gate_0.CLK a_44716_n517# VSS.t651 nfet_03v3 ad=0.218p pd=1.36u as=0.37p ps=2.56u w=0.84u l=0.5u
X61 VSS.t278 VSS.t277 VSS.t278 VSS.t270 nfet_03v3 ad=0.22p pd=1.88u as=0 ps=0 w=0.5u l=0.84u
X62 VDD mux_magic_1.AND2_magic_0.A a_27875_8520# VDD.t377 pfet_03v3 ad=0.291p pd=1.64u as=0.291p ps=1.64u w=1.12u l=0.56u
X63 VCO_DFF_C_0.VCO_C_0.OUT VCO_DFF_C_0.VCO_C_0.INV_2_4.IN VSS.t79 VSS.t78 nfet_03v3 ad=0.13p pd=1.02u as=0.13p ps=1.02u w=0.5u l=0.5u
X64 VDD VCO_DFF_C_0.VCO_C_0.INV_2_4.IN VCO_DFF_C_0.VCO_C_0.OUT VDD.t133 pfet_03v3 ad=0.22p pd=1.88u as=0.13p ps=1.02u w=0.5u l=0.5u
X65 a_25706_n567# VCO_DFF_C_0.VCO_C_0.OUT VCO_DFF_C_0.VCO_C_0.INV_2_0.IN VSS.t82 nfet_03v3 ad=0.13p pd=1.02u as=0.13p ps=1.02u w=0.5u l=0.84u
X66 a_22967_8787# PFD_T2_0.INV_mag_0.OUT a_22880_9797# VSS.t137 nfet_03v3 ad=0.13p pd=1.02u as=0.22p ps=1.88u w=0.5u l=0.5u
X67 VSS ITAIL1.t6 ITAIL1.t7 VSS.t46 nfet_03v3 ad=92.8f pd=0.92u as=0.158p ps=1.64u w=0.28u l=0.56u
X68 RES_74k_1.P RES_74k_1.P VDD.t54 ppolyf_u r_width=1.1u r_length=2.6u
X69 RES_74k_1.M VSS.t406 cap_mim_2f0_m4m5_noshield c_width=31u c_length=29u
X70 VSS.t276 VSS.t274 VSS.t276 VSS.t275 nfet_03v3 ad=0.22p pd=1.88u as=0 ps=0 w=0.5u l=0.84u
X71 mux_magic_3.AND2_magic_0.A S6.t1 VDD.t398 VDD.t397 pfet_03v3 ad=0.291p pd=1.64u as=0.493p ps=3.12u w=1.12u l=0.56u
X72 a_31940_9626# UP.t3 VSS.t145 VSS.t120 nfet_03v3 ad=92.8f pd=0.92u as=0.158p ps=1.64u w=0.28u l=0.56u
X73 a_31940_9626# UP.t4 VSS.t660 VSS.t659 nfet_03v3 ad=92.8f pd=0.92u as=92.8f ps=0.92u w=0.28u l=0.56u
X74 VDD S3.t1 a_27875_9714# VDD.t797 pfet_03v3 ad=0.291p pd=1.64u as=0.291p ps=1.64u w=1.12u l=0.56u
X75 VSS.t273 VSS.t272 VSS.t273 VSS.t229 nfet_03v3 ad=0.22p pd=1.88u as=0 ps=0 w=0.5u l=0.84u
X76 VCO_DFF_C_0.VCO_C_0.INV_2_2.IN VCO_DFF_C_0.VCO_C_0.INV_2_3.IN VDD.t606 VDD.t598 pfet_03v3 ad=0.13p pd=1.02u as=0.13p ps=1.02u w=0.5u l=0.84u
X77 a_20103_8443# DIV_OUT.t0 VSS.t56 VSS.t55 nfet_03v3 ad=0.291p pd=1.64u as=0.291p ps=1.64u w=1.12u l=0.56u
X78 VCO_DFF_C_0.VCO_C_0.INV_2_5.IN VCO_DFF_C_0.VCTRL VDD.t178 VDD.t149 pfet_03v3 ad=0.22p pd=1.88u as=0.13p ps=1.02u w=0.5u l=0.84u
X79 a_44728_10426# a_44428_9804# VDD.t54 ppolyf_u r_width=1.1u r_length=2.6u
X80 VDD S4.t0 A_MUX_0.Tr_Gate_1.CLK VDD.t85 pfet_03v3 ad=0.13p pd=1.02u as=0.13p ps=1.02u w=0.5u l=0.5u
X81 RES_74k_1.M VSS.t405 cap_mim_2f0_m4m5_noshield c_width=31u c_length=29u
X82 a_42628_9598# a_42928_8976# VDD.t93 ppolyf_u r_width=1.1u r_length=2.6u
X83 VSS.t271 VSS.t269 VSS.t271 VSS.t270 nfet_03v3 ad=0.22p pd=1.88u as=0 ps=0 w=0.5u l=0.84u
X84 a_44728_12082# a_44428_11460# VDD.t54 ppolyf_u r_width=1.1u r_length=2.6u
X85 a_20103_9637# VSS.t266 VSS.t268 VSS.t267 nfet_03v3 ad=0.291p pd=1.64u as=0.291p ps=1.64u w=1.12u l=0.56u
X86 VCO_DFF_C_0.VCO_C_0.INV_2_0.OUT VCO_DFF_C_0.VCO_C_0.INV_2_0.IN VSS.t586 VSS.t131 nfet_03v3 ad=0.13p pd=1.02u as=0.13p ps=1.02u w=0.5u l=0.5u
X87 VCO_DFF_C_0.DFF_3_mag_0.INV_2_1.IN VCO_DFF_C_0.VCO_C_0.OUTB VCO_DFF_C_0.DFF_3_mag_0.INV_2_5.OUT VSS.t496 nfet_03v3 ad=0.37p pd=2.56u as=0.218p ps=1.36u w=0.84u l=0.5u
X88 PFD_T2_0.FIN a_21437_10708# VSS.t136 VSS.t135 nfet_03v3 ad=0.493p pd=3.12u as=0.493p ps=3.12u w=1.12u l=0.56u
X89 a_41879_1284# VCO_DFF_C_0.DFF_3_mag_0.Tr_Gate_0.CLK VSS.t656 VSS.t652 nfet_03v3 ad=0.37p pd=2.56u as=0.218p ps=1.36u w=0.84u l=0.5u
X90 PFD_T2_0.INV_mag_0.OUT PFD_T2_0.INV_mag_0.IN VDD.t442 VDD.t417 pfet_03v3 ad=0.13p pd=1.02u as=0.22p ps=1.88u w=0.5u l=0.5u
X91 a_27722_10564# S2.t0 a_27922_10564# VSS.t764 nfet_03v3 ad=0.493p pd=3.12u as=0.291p ps=1.64u w=1.12u l=0.56u
X92 a_41879_1284# VCO_DFF_C_0.DFF_3_mag_0.Tr_Gate_0.CLK VDD.t650 VDD.t260 pfet_03v3 ad=0.218p pd=1.36u as=0.218p ps=1.36u w=0.84u l=0.5u
X93 a_25706_n567# VCTRL2.t7 VSS.t165 VSS.t148 nfet_03v3 ad=0.13p pd=1.02u as=0.22p ps=1.88u w=0.5u l=0.84u
X94 VCO_DFF_C_0.VCO_C_0.INV_2_0.IN VCO_DFF_C_0.VCO_C_0.OUT a_25706_n567# VSS.t81 nfet_03v3 ad=0.13p pd=1.02u as=0.13p ps=1.02u w=0.5u l=0.84u
X95 VSS S1.t0 mux_magic_2.AND2_magic_0.A VSS.t590 nfet_03v3 ad=0.291p pd=1.64u as=0.291p ps=1.64u w=1.12u l=0.56u
X96 a_44428_11254# a_44728_10632# VDD.t54 ppolyf_u r_width=1.1u r_length=2.6u
X97 a_19897_11741# PRE_SCALAR.t0 VDD.t726 VDD.t725 pfet_03v3 ad=0.291p pd=1.64u as=0.291p ps=1.64u w=1.12u l=0.56u
X98 VSS OUT.t13 VCO_DFF_C_0.DFF_3_mag_0.Tr_Gate_0.IN VSS.t630 nfet_03v3 ad=0.22p pd=1.88u as=0.13p ps=1.02u w=0.5u l=0.5u
X99 VSS VCTRL2.t8 a_25706_n567# VSS.t451 nfet_03v3 ad=0.13p pd=1.02u as=0.13p ps=1.02u w=0.5u l=0.84u
X100 a_27722_11758# mux_magic_0.AND2_magic_0.A a_27922_11758# VSS.t54 nfet_03v3 ad=0.493p pd=3.12u as=0.291p ps=1.64u w=1.12u l=0.56u
X101 ITAIL ITAIL.t14 VDD.t558 VDD.t537 pfet_03v3 ad=0.158p pd=1.64u as=0.158p ps=1.64u w=0.28u l=0.56u
X102 a_29262_12133# mux_magic_0.OR_magic_0.A VDD.t482 VDD.t1 pfet_03v3 ad=0.291p pd=1.64u as=0.291p ps=1.64u w=1.12u l=0.56u
X103 VSS PFD_T2_0.INV_mag_0.IN a_23836_10693# VSS.t475 nfet_03v3 ad=0.13p pd=1.02u as=0.22p ps=1.88u w=0.5u l=0.5u
X104 VSS S3.t2 mux_magic_1.AND2_magic_0.A VSS.t740 nfet_03v3 ad=0.291p pd=1.64u as=0.291p ps=1.64u w=1.12u l=0.56u
X105 a_45928_10426# a_46228_9804# VDD.t56 ppolyf_u r_width=1.1u r_length=2.6u
X106 VCO_DFF_C_0.VCO_C_0.INV_2_3.OUT VCO_DFF_C_0.VCO_C_0.INV_2_3.IN VDD.t605 VDD.t570 pfet_03v3 ad=0.13p pd=1.02u as=0.22p ps=1.88u w=0.5u l=0.5u
X107 a_44428_9598# a_44128_8976# VDD.t55 ppolyf_u r_width=1.1u r_length=2.6u
X108 VDD S4.t1 a_42763_5679# VDD.t78 pfet_03v3 ad=0.218p pd=1.36u as=0.218p ps=1.36u w=0.84u l=0.5u
X109 RES_74k_1.M VSS.t404 cap_mim_2f0_m4m5_noshield c_width=31u c_length=29u
X110 VCO_DFF_C_0.DFF_3_mag_0.Tr_Gate_0.CLK VCO_DFF_C_0.VCO_C_0.OUTB VSS.t499 VSS.t498 nfet_03v3 ad=0.13p pd=1.02u as=0.13p ps=1.02u w=0.5u l=0.5u
X111 VCO_DFF_C_0.VCO_C_0.OUTB VCO_DFF_C_0.VCO_C_0.INV_2_3.OUT VDD.t826 VDD.t819 pfet_03v3 ad=0.13p pd=1.02u as=0.22p ps=1.88u w=0.5u l=0.5u
X112 RES_74k_1.M VSS.t403 cap_mim_2f0_m4m5_noshield c_width=31u c_length=29u
X113 a_27922_10564# S2.t1 a_27722_10564# VSS.t732 nfet_03v3 ad=0.291p pd=1.64u as=0.493p ps=3.12u w=1.12u l=0.56u
X114 VCO_DFF_C_0.VCO_C_0.INV_2_0.IN VCO_DFF_C_0.VCO_C_0.INV_2_5.IN VDD.t355 VDD.t336 pfet_03v3 ad=0.22p pd=1.88u as=0.13p ps=1.02u w=0.5u l=0.84u
X115 a_25706_n567# VCO_DFF_C_0.VCO_C_0.OUTB VCO_DFF_C_0.VCO_C_0.INV_2_5.IN VSS.t80 nfet_03v3 ad=0.13p pd=1.02u as=0.22p ps=1.88u w=0.5u l=0.84u
X116 a_29262_12133# mux_magic_0.OR_magic_0.A VDD.t481 VDD.t477 pfet_03v3 ad=0.291p pd=1.64u as=0.493p ps=3.12u w=1.12u l=0.56u
X117 a_45928_8770# a_45628_8148# VDD.t7 ppolyf_u r_width=1.1u r_length=2.6u
X118 OUTB a_41879_1284# VCO_DFF_C_0.DFF_3_mag_0.INV_2_1.IN VDD.t261 pfet_03v3 ad=0.37p pd=2.56u as=0.218p ps=1.36u w=0.84u l=0.5u
X119 a_42628_8770# a_42628_8148# VDD.t0 ppolyf_u r_width=1.1u r_length=2.6u
X120 RES_74k_1.M VSS.t402 cap_mim_2f0_m4m5_noshield c_width=31u c_length=29u
X121 a_31732_10267# ITAIL.t17 RES_74k_1.P VDD.t534 pfet_03v3 ad=0.158p pd=1.64u as=0.158p ps=1.64u w=0.28u l=0.56u
X122 a_29415_9553# mux_magic_1.OR_magic_0.B a_29415_8145# VDD.t306 pfet_03v3 ad=0.493p pd=3.12u as=0.291p ps=1.64u w=1.12u l=0.56u
X123 a_27922_11758# mux_magic_0.AND2_magic_0.A a_27722_11758# VSS.t53 nfet_03v3 ad=0.291p pd=1.64u as=0.493p ps=3.12u w=1.12u l=0.56u
X124 VCO_DFF_C_0.VCO_C_0.INV_2_0.IN VCO_DFF_C_0.VCO_C_0.OUT a_25706_n567# VSS.t83 nfet_03v3 ad=0.22p pd=1.88u as=0.13p ps=1.02u w=0.5u l=0.84u
X125 VSS DIV_OUT.t1 a_20103_8443# VSS.t587 nfet_03v3 ad=0.291p pd=1.64u as=0.291p ps=1.64u w=1.12u l=0.56u
X126 RES_74k_1.P RES_74k_1.P VDD.t8 ppolyf_u r_width=1.1u r_length=2.6u
X127 VSS VCO_DFF_C_0.VCO_C_0.INV_2_4.IN VCO_DFF_C_0.VCO_C_0.OUT VSS.t75 nfet_03v3 ad=0.22p pd=1.88u as=0.13p ps=1.02u w=0.5u l=0.5u
X128 VCO_DFF_C_0.VCO_C_0.INV_2_2.IN VCO_DFF_C_0.VCO_C_0.INV_2_3.IN VDD.t604 VDD.t575 pfet_03v3 ad=0.22p pd=1.88u as=0.13p ps=1.02u w=0.5u l=0.84u
X129 VDD.t236 VDD.t235 VDD.t236 VDD.t206 pfet_03v3 ad=0.22p pd=1.88u as=0 ps=0 w=0.5u l=0.84u
X130 VCO_DFF_C_0.DFF_3_mag_0.INV_2_5.OUT VCO_DFF_C_0.DFF_3_mag_0.INV_2_1.OUT VDD.t722 VDD.t712 pfet_03v3 ad=0.13p pd=1.02u as=0.13p ps=1.02u w=0.5u l=0.5u
X131 VSS VCTRL2.t9 a_25706_n567# VSS.t451 nfet_03v3 ad=0.13p pd=1.02u as=0.13p ps=1.02u w=0.5u l=0.84u
X132 a_19897_11741# mux_magic_2.AND2_magic_0.A VDD.t655 VDD.t654 pfet_03v3 ad=0.291p pd=1.64u as=0.493p ps=3.12u w=1.12u l=0.56u
X133 RES_74k_1.P RES_74k_1.P VDD.t7 ppolyf_u r_width=1.1u r_length=2.6u
X134 VSS OUT.t14 OUTB.t11 VSS.t768 nfet_03v3 ad=0.13p pd=1.02u as=0.13p ps=1.02u w=0.5u l=0.5u
X135 PFD_T2_0.FDIV a_21443_9476# VDD.t764 VDD.t20 pfet_03v3 ad=0.493p pd=3.12u as=0.493p ps=3.12u w=1.12u l=0.56u
X136 RES_74k_1.P RES_74k_1.P VDD.t0 ppolyf_u r_width=1.1u r_length=2.6u
X137 VDD.t234 VDD.t233 VDD.t234 VDD.t152 pfet_03v3 ad=0.22p pd=1.88u as=0 ps=0 w=0.5u l=0.84u
X138 PFD_T2_0.INV_mag_1.IN a_22967_8787# VDD.t284 VDD.t283 pfet_03v3 ad=0.13p pd=1.02u as=0.22p ps=1.88u w=0.5u l=0.5u
X139 a_25557_8739# PFD_T2_0.Buffer_V_2_0.IN VDD.t396 VDD.t395 pfet_03v3 ad=0.13p pd=1.02u as=0.22p ps=1.88u w=0.5u l=0.5u
X140 VDD ITAIL.t12 ITAIL.t13 VDD.t538 pfet_03v3 ad=0.158p pd=1.64u as=0.158p ps=1.64u w=0.28u l=0.56u
X141 VCO_DFF_C_0.VCO_C_0.INV_2_2.IN VCO_DFF_C_0.VCO_C_0.INV_2_3.IN VDD.t603 VDD.t580 pfet_03v3 ad=0.22p pd=1.88u as=0.13p ps=1.02u w=0.5u l=0.84u
X142 RES_74k_1.M VSS.t401 cap_mim_2f0_m4m5_noshield c_width=31u c_length=29u
X143 a_24436_11277# PFD_T2_0.INV_mag_0.IN PFD_T2_0.INV_mag_0.IN VDD.t441 pfet_03v3 ad=0.22p pd=1.88u as=0.13p ps=1.02u w=0.5u l=0.5u
X144 VSS VSS.t262 a_20103_9637# VSS.t263 nfet_03v3 ad=0.291p pd=1.64u as=0.291p ps=1.64u w=1.12u l=0.56u
X145 VCO_DFF_C_0.VCO_C_0.INV_2_3.OUT VCO_DFF_C_0.VCO_C_0.INV_2_3.IN VDD.t602 VDD.t589 pfet_03v3 ad=0.13p pd=1.02u as=0.13p ps=1.02u w=0.5u l=0.5u
X146 VDD A_MUX_0.Tr_Gate_1.CLK a_45158_5339# VDD.t298 pfet_03v3 ad=0.37p pd=2.56u as=0.218p ps=1.36u w=0.84u l=0.5u
X147 VDD VCO_DFF_C_0.VCO_C_0.INV_2_0.IN VCO_DFF_C_0.VCO_C_0.INV_2_5.IN VDD.t324 pfet_03v3 ad=0.13p pd=1.02u as=0.13p ps=1.02u w=0.5u l=0.84u
X148 mux_magic_0.OR_magic_0.B a_27722_10564# VSS.t147 VSS.t146 nfet_03v3 ad=0.493p pd=3.12u as=0.493p ps=3.12u w=1.12u l=0.56u
X149 a_22880_9797# PFD_T2_0.INV_mag_0.OUT a_22967_8787# VSS.t138 nfet_03v3 ad=0.22p pd=1.88u as=0.13p ps=1.02u w=0.5u l=0.5u
X150 a_45328_12082# a_45628_11460# VDD.t8 ppolyf_u r_width=1.1u r_length=2.6u
X151 a_41879_1284# VCO_DFF_C_0.DFF_3_mag_0.Tr_Gate_0.CLK VDD.t649 VDD.t263 pfet_03v3 ad=0.218p pd=1.36u as=0.37p ps=2.56u w=0.84u l=0.5u
X152 a_44128_8770# a_43828_8148# VDD.t25 ppolyf_u r_width=1.1u r_length=2.6u
X153 mux_magic_1.AND2_magic_0.A S3.t3 VDD.t801 VDD.t800 pfet_03v3 ad=0.291p pd=1.64u as=0.493p ps=3.12u w=1.12u l=0.56u
X154 VDD.t232 VDD.t230 VDD.t232 VDD.t231 pfet_03v3 ad=0.22p pd=1.88u as=0 ps=0 w=0.5u l=0.84u
X155 VDD S2.t2 a_27722_10564# VDD.t420 pfet_03v3 ad=0.291p pd=1.64u as=0.291p ps=1.64u w=1.12u l=0.56u
X156 RES_74k_1.P ITAIL.t18 a_31732_10267# VDD.t539 pfet_03v3 ad=0.158p pd=1.64u as=0.158p ps=1.64u w=0.28u l=0.56u
X157 VSS VCTRL2.t10 a_25706_n567# VSS.t517 nfet_03v3 ad=0.22p pd=1.88u as=0.13p ps=1.02u w=0.5u l=0.84u
X158 VCO_DFF_C_0.VCO_C_0.INV_2_4.IN VCO_DFF_C_0.VCO_C_0.INV_2_2.IN VSS.t676 VSS.t675 nfet_03v3 ad=0.13p pd=1.02u as=0.22p ps=1.88u w=0.5u l=0.5u
X159 RES_74k_1.M VSS.t400 cap_mim_2f0_m4m5_noshield c_width=31u c_length=29u
X160 mux_magic_0.OR_magic_0.A a_27722_11758# VSS.t95 VSS.t94 nfet_03v3 ad=0.493p pd=3.12u as=0.493p ps=3.12u w=1.12u l=0.56u
X161 RES_74k_1.M VSS.t399 cap_mim_2f0_m4m5_noshield c_width=31u c_length=29u
X162 VDD a_31468_10271# a_31732_10267# VDD.t122 pfet_03v3 ad=0.308p pd=2.28u as=0.308p ps=2.28u w=0.7u l=0.56u
X163 VDD VCO_DFF_C_0.VCO_C_0.INV_2_5.IN VCO_DFF_C_0.VCO_C_0.INV_2_5.OUT VDD.t332 pfet_03v3 ad=0.13p pd=1.02u as=0.13p ps=1.02u w=0.5u l=0.5u
X164 RES_74k_1.M VSS.t398 cap_mim_2f0_m4m5_noshield c_width=31u c_length=29u
X165 a_31468_10271# DN.t3 VDD.t666 VDD.t104 pfet_03v3 ad=0.158p pd=1.64u as=0.158p ps=1.64u w=0.28u l=0.56u
X166 a_45628_11254# a_45328_10632# VDD.t8 ppolyf_u r_width=1.1u r_length=2.6u
X167 VDD A_MUX_0.Tr_Gate_1.CLK a_45158_5339# VDD.t295 pfet_03v3 ad=0.218p pd=1.36u as=0.218p ps=1.36u w=0.84u l=0.5u
X168 VCO_DFF_C_0.VCO_C_0.INV_2_3.IN VCO_DFF_C_0.VCO_C_0.INV_2_5.OUT a_34443_2598# VSS.t91 nfet_03v3 ad=0.13p pd=1.02u as=0.13p ps=1.02u w=0.5u l=0.84u
X169 VCO_DFF_C_0.DFF_3_mag_0.INV_2_1.IN VCO_DFF_C_0.VCO_C_0.OUTB VCO_DFF_C_0.DFF_3_mag_0.INV_2_5.OUT VSS.t478 nfet_03v3 ad=0.37p pd=2.56u as=0.37p ps=2.56u w=0.84u l=0.5u
X170 VDD VCO_DFF_C_0.DFF_3_mag_0.Tr_Gate_0.CLK a_41879_1284# VDD.t261 pfet_03v3 ad=0.37p pd=2.56u as=0.218p ps=1.36u w=0.84u l=0.5u
X171 a_22880_9797# PFD_T2_0.INV_mag_1.OUT VSS.t15 VSS.t14 nfet_03v3 ad=0.13p pd=1.02u as=0.22p ps=1.88u w=0.5u l=0.5u
X172 VCO_DFF_C_0.VCO_C_0.INV_2_4.IN VCO_DFF_C_0.VCO_C_0.INV_2_2.IN VDD.t705 VDD.t683 pfet_03v3 ad=0.13p pd=1.02u as=0.13p ps=1.02u w=0.5u l=0.5u
X173 VDD OUT.t15 VCO_DFF_C_0.DFF_3_mag_0.Tr_Gate_0.IN VDD.t48 pfet_03v3 ad=0.22p pd=1.88u as=0.13p ps=1.02u w=0.5u l=0.5u
X174 VDD.t229 VDD.t228 VDD.t229 VDD.t182 pfet_03v3 ad=0.22p pd=1.88u as=0 ps=0 w=0.5u l=0.84u
X175 VDD a_22966_11778# PFD_T2_0.INV_mag_0.IN VDD.t752 pfet_03v3 ad=0.13p pd=1.02u as=0.13p ps=1.02u w=0.5u l=0.5u
X176 RES_74k_1.P RES_74k_1.P VDD.t25 ppolyf_u r_width=1.1u r_length=2.6u
X177 a_34443_2598# VCTRL2.t11 VSS.t547 VSS.t533 nfet_03v3 ad=0.13p pd=1.02u as=0.13p ps=1.02u w=0.5u l=0.84u
X178 VSS VCO_DFF_C_0.VCO_C_0.INV_2_2.IN VCO_DFF_C_0.VCO_C_0.INV_2_4.IN VSS.t672 nfet_03v3 ad=0.22p pd=1.88u as=0.13p ps=1.02u w=0.5u l=0.5u
X179 a_20097_10547# F_IN.t0 VSS.t734 VSS.t733 nfet_03v3 ad=0.291p pd=1.64u as=0.291p ps=1.64u w=1.12u l=0.56u
X180 VCO_DFF_C_0.VCO_C_0.INV_2_5.OUT VCO_DFF_C_0.VCO_C_0.INV_2_5.IN VDD.t352 VDD.t327 pfet_03v3 ad=0.13p pd=1.02u as=0.22p ps=1.88u w=0.5u l=0.5u
X181 VCO_DFF_C_0.VCO_C_0.INV_2_0.OUT VCO_DFF_C_0.VCO_C_0.INV_2_0.IN VDD.t517 VDD.t483 pfet_03v3 ad=0.13p pd=1.02u as=0.22p ps=1.88u w=0.5u l=0.5u
X182 RES_74k_1.M VSS.t397 cap_mim_2f0_m4m5_noshield c_width=31u c_length=29u
X183 a_22880_10947# a_22966_11778# VSS.t706 VSS.t705 nfet_03v3 ad=0.22p pd=1.88u as=0.13p ps=1.02u w=0.5u l=0.5u
X184 VSS UP.t5 a_31940_9626# VSS.t122 nfet_03v3 ad=92.8f pd=0.92u as=92.8f ps=0.92u w=0.28u l=0.56u
X185 VDD VCO_DFF_C_0.VCO_C_0.INV_2_3.IN VCO_DFF_C_0.VCO_C_0.INV_2_3.OUT VDD.t562 pfet_03v3 ad=0.22p pd=1.88u as=0.13p ps=1.02u w=0.5u l=0.5u
X186 mux_magic_3.OR_magic_0.A a_19903_8443# VDD.t759 VDD.t758 pfet_03v3 ad=0.291p pd=1.64u as=0.291p ps=1.64u w=1.12u l=0.56u
X187 VDD VCO_DFF_C_0.VCO_C_0.INV_2_5.IN VCO_DFF_C_0.VCO_C_0.INV_2_0.IN VDD.t324 pfet_03v3 ad=0.13p pd=1.02u as=0.13p ps=1.02u w=0.5u l=0.84u
X188 RES_74k_1.M VSS.t396 cap_mim_2f0_m4m5_noshield c_width=31u c_length=29u
X189 a_21443_9476# mux_magic_3.OR_magic_0.B a_21443_8068# VDD.t22 pfet_03v3 ad=0.493p pd=3.12u as=0.291p ps=1.64u w=1.12u l=0.56u
X190 RES_74k_1.M VSS.t395 cap_mim_2f0_m4m5_noshield c_width=31u c_length=29u
X191 VDD VCO_DFF_C_0.VCO_C_0.OUTB VCO_DFF_C_0.DFF_3_mag_0.Tr_Gate_0.CLK VDD.t461 pfet_03v3 ad=0.22p pd=1.88u as=0.13p ps=1.02u w=0.5u l=0.5u
X192 VCO_DFF_C_0.VCO_C_0.INV_2_3.OUT VCO_DFF_C_0.VCO_C_0.INV_2_3.IN VSS.t621 VSS.t620 nfet_03v3 ad=0.13p pd=1.02u as=0.13p ps=1.02u w=0.5u l=0.5u
X193 VDD a_31468_10271# a_31732_10267# VDD.t122 pfet_03v3 ad=0.308p pd=2.28u as=0.308p ps=2.28u w=0.7u l=0.56u
X194 VDD VCO_DFF_C_0.DFF_3_mag_0.INV_2_1.OUT VCO_DFF_C_0.DFF_3_mag_0.INV_2_5.OUT VDD.t714 pfet_03v3 ad=0.22p pd=1.88u as=0.13p ps=1.02u w=0.5u l=0.5u
X195 a_22880_10947# PFD_T2_0.FIN PFD_T2_0.INV_mag_0.IN VSS.t138 nfet_03v3 ad=0.13p pd=1.02u as=0.13p ps=1.02u w=0.5u l=0.5u
X196 a_22967_8787# PFD_T2_0.FDIV VDD.t376 VDD.t283 pfet_03v3 ad=0.13p pd=1.02u as=0.22p ps=1.88u w=0.5u l=0.5u
X197 VCO_DFF_C_0.VCO_C_0.OUTB VCO_DFF_C_0.VCO_C_0.INV_2_3.OUT VSS.t755 VSS.t754 nfet_03v3 ad=0.13p pd=1.02u as=0.13p ps=1.02u w=0.5u l=0.5u
X198 RES_74k_1.M VSS.t394 cap_mim_2f0_m4m5_noshield c_width=31u c_length=29u
X199 VDD mux_magic_2.OR_magic_0.A a_21437_12116# VDD.t17 pfet_03v3 ad=0.291p pd=1.64u as=0.493p ps=3.12u w=1.12u l=0.56u
X200 RES_74k_1.M VSS.t393 cap_mim_2f0_m4m5_noshield c_width=31u c_length=29u
X201 VDD VCO_DFF_C_0.DFF_3_mag_0.Tr_Gate_0.OUT OUT.t7 VDD.t31 pfet_03v3 ad=0.13p pd=1.02u as=0.13p ps=1.02u w=0.5u l=0.5u
X202 VCO_DFF_C_0.DFF_3_mag_0.Tr_Gate_0.CLK VCO_DFF_C_0.VCO_C_0.OUTB VDD.t470 VDD.t459 pfet_03v3 ad=0.13p pd=1.02u as=0.13p ps=1.02u w=0.5u l=0.5u
X203 VDD VCO_DFF_C_0.VCO_C_0.INV_2_3.OUT VCO_DFF_C_0.VCO_C_0.OUTB VDD.t816 pfet_03v3 ad=0.22p pd=1.88u as=0.13p ps=1.02u w=0.5u l=0.5u
X204 RES_74k_1.M VSS.t392 cap_mim_2f0_m4m5_noshield c_width=31u c_length=29u
X205 a_44716_n517# VCO_DFF_C_0.DFF_3_mag_0.Tr_Gate_0.CLK VDD.t646 VDD.t372 pfet_03v3 ad=0.218p pd=1.36u as=0.218p ps=1.36u w=0.84u l=0.5u
X206 VSS VCTRL2.t12 a_25706_n567# VSS.t150 nfet_03v3 ad=0.13p pd=1.02u as=0.13p ps=1.02u w=0.5u l=0.84u
X207 VDD.t227 VDD.t225 VDD.t227 VDD.t226 pfet_03v3 ad=0.22p pd=1.88u as=0 ps=0 w=0.5u l=0.84u
X208 RES_74k_1.P RES_74k_1.P VDD.t0 ppolyf_u r_width=1.1u r_length=2.6u
X209 VSS VCTRL2.t13 a_25706_n567# VSS.t150 nfet_03v3 ad=0.13p pd=1.02u as=0.13p ps=1.02u w=0.5u l=0.84u
X210 RES_74k_1.P RES_74k_1.P VDD.t6 ppolyf_u r_width=1.1u r_length=2.6u
X211 a_45158_5339# A_MUX_0.Tr_Gate_1.CLK VSS.t111 VSS.t107 nfet_03v3 ad=0.37p pd=2.56u as=0.218p ps=1.36u w=0.84u l=0.5u
X212 VDD VCO_DFF_C_0.VCO_C_0.INV_2_2.IN VCO_DFF_C_0.VCO_C_0.INV_2_3.IN VDD.t591 pfet_03v3 ad=0.13p pd=1.02u as=0.22p ps=1.88u w=0.5u l=0.84u
X213 a_42763_5679# S4.t2 VDD.t90 VDD.t77 pfet_03v3 ad=0.218p pd=1.36u as=0.218p ps=1.36u w=0.84u l=0.5u
X214 UP a_29262_10725# VDD.t24 VDD.t3 pfet_03v3 ad=0.493p pd=3.12u as=0.493p ps=3.12u w=1.12u l=0.56u
X215 VDD VCO_DFF_C_0.VCO_C_0.INV_2_0.IN VCO_DFF_C_0.VCO_C_0.INV_2_5.IN VDD.t329 pfet_03v3 ad=0.13p pd=1.02u as=0.13p ps=1.02u w=0.5u l=0.84u
X216 mux_magic_2.OR_magic_0.A a_19897_11741# VSS.t59 VSS.t58 nfet_03v3 ad=0.493p pd=3.12u as=0.493p ps=3.12u w=1.12u l=0.56u
X217 VSS a_22967_8787# a_22881_9554# VSS.t103 nfet_03v3 ad=0.13p pd=1.02u as=0.13p ps=1.02u w=0.5u l=0.5u
X218 VCO_DFF_C_0.VCO_C_0.INV_2_2.IN VCO_DFF_C_0.VCO_C_0.INV_2_3.IN VDD.t599 VDD.t598 pfet_03v3 ad=0.13p pd=1.02u as=0.13p ps=1.02u w=0.5u l=0.84u
X219 RES_74k_1.M VSS.t391 cap_mim_2f0_m4m5_noshield c_width=31u c_length=29u
X220 a_20097_10547# S1.t1 a_19897_10547# VSS.t593 nfet_03v3 ad=0.291p pd=1.64u as=0.493p ps=3.12u w=1.12u l=0.56u
X221 VDD a_25557_8739# PFD_T2_0.DOWN VDD.t66 pfet_03v3 ad=0.22p pd=1.88u as=0.13p ps=1.02u w=0.5u l=0.5u
X222 VCO_DFF_C_0.VCO_C_0.INV_2_0.OUT VCO_DFF_C_0.VCO_C_0.INV_2_0.IN VDD.t514 VDD.t508 pfet_03v3 ad=0.13p pd=1.02u as=0.13p ps=1.02u w=0.5u l=0.5u
X223 RES_74k_1.M a_42628_11460# VDD.t0 ppolyf_u r_width=1.1u r_length=2.6u
X224 VDD OUT.t16 OUTB.t7 VDD.t45 pfet_03v3 ad=0.22p pd=1.88u as=0.13p ps=1.02u w=0.5u l=0.5u
X225 mux_magic_0.AND2_magic_0.A S2.t3 VDD.t121 VDD.t120 pfet_03v3 ad=0.493p pd=3.12u as=0.291p ps=1.64u w=1.12u l=0.56u
X226 a_46528_12082# a_46228_11460# VDD.t6 ppolyf_u r_width=1.1u r_length=2.6u
X227 VSS.t261 VSS.t260 VSS.t261 VSS.t181 nfet_03v3 ad=0.22p pd=1.88u as=0 ps=0 w=0.5u l=0.84u
X228 a_19903_9637# S6.t2 VDD.t400 VDD.t399 pfet_03v3 ad=0.291p pd=1.64u as=0.493p ps=3.12u w=1.12u l=0.56u
X229 PFD_T2_0.INV_mag_0.IN a_22966_11778# VDD.t751 VDD.t439 pfet_03v3 ad=0.13p pd=1.02u as=0.13p ps=1.02u w=0.5u l=0.5u
X230 a_34443_2598# VCO_DFF_C_0.VCO_C_0.INV_2_5.OUT VCO_DFF_C_0.VCO_C_0.INV_2_3.IN VSS.t501 nfet_03v3 ad=0.13p pd=1.02u as=0.22p ps=1.88u w=0.5u l=0.84u
X231 VCO_DFF_C_0.DFF_3_mag_0.INV_2_1.OUT VCO_DFF_C_0.DFF_3_mag_0.INV_2_1.IN VDD.t638 VDD.t445 pfet_03v3 ad=0.13p pd=1.02u as=0.22p ps=1.88u w=0.5u l=0.5u
X232 a_45328_10426# a_45628_9804# VDD.t8 ppolyf_u r_width=1.1u r_length=2.6u
X233 VCO_DFF_C_0.VCO_C_0.OUT VCO_DFF_C_0.VCO_C_0.INV_2_4.IN VDD.t144 VDD.t131 pfet_03v3 ad=0.13p pd=1.02u as=0.13p ps=1.02u w=0.5u l=0.5u
X234 VCO_DFF_C_0.VCO_C_0.INV_2_3.IN VCO_DFF_C_0.VCO_C_0.INV_2_2.IN VDD.t702 VDD.t575 pfet_03v3 ad=0.22p pd=1.88u as=0.13p ps=1.02u w=0.5u l=0.84u
X235 RES_74k_1.P RES_74k_1.P VDD.t69 ppolyf_u r_width=1.1u r_length=2.6u
X236 PFD_T2_0.Buffer_V_2_1.IN PFD_T2_0.INV_mag_0.IN VDD.t440 VDD.t439 pfet_03v3 ad=0.22p pd=1.88u as=0.13p ps=1.02u w=0.5u l=0.5u
X237 VDD a_22967_8787# PFD_T2_0.INV_mag_1.IN VDD.t280 pfet_03v3 ad=0.13p pd=1.02u as=0.13p ps=1.02u w=0.5u l=0.5u
X238 DN a_29415_9553# VDD.t476 VDD.t474 pfet_03v3 ad=0.493p pd=3.12u as=0.493p ps=3.12u w=1.12u l=0.56u
X239 a_43828_9598# a_43528_8976# VDD.t4 ppolyf_u r_width=1.1u r_length=2.6u
X240 VCO_DFF_C_0.VCTRL S4.t3 VCTRL_IN.t7 VSS.t57 nfet_03v3 ad=0.37p pd=2.56u as=0.37p ps=2.56u w=0.84u l=0.5u
X241 VCTRL_IN a_42763_5679# VCO_DFF_C_0.VCTRL VDD.t78 pfet_03v3 ad=0.218p pd=1.36u as=0.218p ps=1.36u w=0.84u l=0.5u
X242 a_34443_2598# VCO_DFF_C_0.VCO_C_0.INV_2_0.OUT VCO_DFF_C_0.VCO_C_0.INV_2_2.IN VSS.t92 nfet_03v3 ad=0.13p pd=1.02u as=0.22p ps=1.88u w=0.5u l=0.84u
X243 VSS VCO_DFF_C_0.VCO_C_0.INV_2_2.IN VCO_DFF_C_0.VCO_C_0.INV_2_4.IN VSS.t669 nfet_03v3 ad=0.13p pd=1.02u as=0.13p ps=1.02u w=0.5u l=0.5u
X244 RES_74k_1.M VSS.t390 cap_mim_2f0_m4m5_noshield c_width=31u c_length=29u
X245 mux_magic_2.AND2_magic_0.A S1.t2 VDD.t524 VDD.t523 pfet_03v3 ad=0.493p pd=3.12u as=0.291p ps=1.64u w=1.12u l=0.56u
X246 a_42628_11254# a_42628_10426# VDD.t0 ppolyf_u r_width=1.1u r_length=2.6u
X247 a_46228_11254# a_46528_10632# VDD.t6 ppolyf_u r_width=1.1u r_length=2.6u
X248 VDD VCO_DFF_C_0.VCO_C_0.INV_2_2.IN VCO_DFF_C_0.VCO_C_0.INV_2_3.IN VDD.t567 pfet_03v3 ad=0.13p pd=1.02u as=0.13p ps=1.02u w=0.5u l=0.84u
X249 RES_74k_1.M VSS.t389 cap_mim_2f0_m4m5_noshield c_width=31u c_length=29u
X250 a_21437_10708# mux_magic_2.OR_magic_0.B a_21437_12116# VDD.t548 pfet_03v3 ad=0.493p pd=3.12u as=0.291p ps=1.64u w=1.12u l=0.56u
X251 VCO_DFF_C_0.VCO_C_0.INV_2_2.IN VCO_DFF_C_0.VCO_C_0.INV_2_0.OUT a_34443_2598# VSS.t91 nfet_03v3 ad=0.13p pd=1.02u as=0.13p ps=1.02u w=0.5u l=0.84u
X252 VCO_DFF_C_0.VCO_C_0.INV_2_3.IN VCO_DFF_C_0.VCO_C_0.INV_2_2.IN VDD.t699 VDD.t565 pfet_03v3 ad=0.13p pd=1.02u as=0.13p ps=1.02u w=0.5u l=0.84u
X253 VCO_DFF_C_0.DFF_3_mag_0.Tr_Gate_0.IN VCO_DFF_C_0.DFF_3_mag_0.Tr_Gate_0.CLK VCO_DFF_C_0.DFF_3_mag_0.Tr_Gate_0.OUT VSS.t646 nfet_03v3 ad=0.37p pd=2.56u as=0.37p ps=2.56u w=0.84u l=0.5u
X254 PFD_T2_0.Buffer_V_2_0.IN PFD_T2_0.INV_mag_0.OUT VSS.t700 VSS.t14 nfet_03v3 ad=0.13p pd=1.02u as=0.13p ps=1.02u w=0.5u l=0.5u
X255 VDD DIV_OUT.t2 a_19903_8443# VDD.t301 pfet_03v3 ad=0.291p pd=1.64u as=0.291p ps=1.64u w=1.12u l=0.56u
X256 VDD mux_magic_1.OR_magic_0.A a_29415_8145# VDD.t308 pfet_03v3 ad=0.291p pd=1.64u as=0.493p ps=3.12u w=1.12u l=0.56u
X257 VDD VCO_DFF_C_0.VCO_C_0.INV_2_5.IN VCO_DFF_C_0.VCO_C_0.INV_2_0.IN VDD.t347 pfet_03v3 ad=0.13p pd=1.02u as=0.22p ps=1.88u w=0.5u l=0.84u
X258 VCO_DFF_C_0.VCO_C_0.OUT VCO_DFF_C_0.VCO_C_0.INV_2_4.IN VDD.t143 VDD.t139 pfet_03v3 ad=0.13p pd=1.02u as=0.22p ps=1.88u w=0.5u l=0.5u
X259 VCO_DFF_C_0.VCO_C_0.INV_2_5.OUT VCO_DFF_C_0.VCO_C_0.INV_2_5.IN VSS.t132 VSS.t131 nfet_03v3 ad=0.13p pd=1.02u as=0.13p ps=1.02u w=0.5u l=0.5u
X260 RES_74k_1.M VSS.t388 cap_mim_2f0_m4m5_noshield c_width=31u c_length=29u
X261 RES_74k_1.M VSS.t387 cap_mim_2f0_m4m5_noshield c_width=31u c_length=29u
X262 VCO_DFF_C_0.VCO_C_0.INV_2_5.IN VCO_DFF_C_0.VCO_C_0.OUTB a_25706_n567# VSS.t83 nfet_03v3 ad=0.22p pd=1.88u as=0.13p ps=1.02u w=0.5u l=0.84u