* NGSPICE file created from PLL_TOP_MUX.ext - technology: gf180mcuC

.subckt cap_mim_2p0fF_VGWXT2 m4_3374_n6300# m4_n3120_n6180# m4_n9854_n6300# m4_3494_n6180#
+ m4_n3240_n6300# m4_n9734_n6180#
X0 m4_n9734_n6180# m4_n9854_n6300# cap_mim_2f0_m4m5_noshield c_width=30u c_length=30u
X1 m4_n3120_n6180# m4_n3240_n6300# cap_mim_2f0_m4m5_noshield c_width=30u c_length=30u
X2 m4_n3120_n6180# m4_n3240_n6300# cap_mim_2f0_m4m5_noshield c_width=30u c_length=30u
X3 m4_n9734_n6180# m4_n9854_n6300# cap_mim_2f0_m4m5_noshield c_width=30u c_length=30u
X4 m4_3494_n6180# m4_3374_n6300# cap_mim_2f0_m4m5_noshield c_width=30u c_length=30u
X5 m4_3494_n6180# m4_3374_n6300# cap_mim_2f0_m4m5_noshield c_width=30u c_length=30u
.ends

.subckt cap_11p P M
Xcap_mim_2p0fF_VGWXT2_1 M P M P M P cap_mim_2p0fF_VGWXT2
.ends

.subckt nmos_3p3_FYTGVN a_56_n28# a_n56_n72# a_n148_n36# VSUBS
X0 a_56_n28# a_n56_n72# a_n148_n36# VSUBS nfet_03v3 ad=0.158p pd=1.64u as=0.158p ps=1.64u w=0.28u l=0.56u
.ends

.subckt pmos_3p3_MDK7F7 a_56_n28# a_n56_n72# a_n148_n36# w_n234_n162#
X0 a_56_n28# a_n56_n72# a_n148_n36# w_n234_n162# pfet_03v3 ad=0.158p pd=1.64u as=0.158p ps=1.64u w=0.28u l=0.56u
.ends

.subckt nmos_3p3_GYTGVN a_n260_n36# a_168_n28# a_56_n72# a_n168_n72# a_n56_n28# VSUBS
X0 a_n56_n28# a_n168_n72# a_n260_n36# VSUBS nfet_03v3 ad=92.8f pd=0.92u as=0.158p ps=1.64u w=0.28u l=0.56u
X1 a_168_n28# a_56_n72# a_n56_n28# VSUBS nfet_03v3 ad=0.158p pd=1.64u as=92.8f ps=0.92u w=0.28u l=0.56u
.ends

.subckt nmos_3p3_XYTGVN a_n56_24# a_n148_60# a_n148_n132# a_56_68# a_56_n124# a_n56_n168#
+ VSUBS
X0 a_56_n124# a_n56_n168# a_n148_n132# VSUBS nfet_03v3 ad=0.158p pd=1.64u as=0.158p ps=1.64u w=0.28u l=0.56u
X1 a_56_68# a_n56_24# a_n148_60# VSUBS nfet_03v3 ad=0.158p pd=1.64u as=0.158p ps=1.64u w=0.28u l=0.56u
.ends

.subckt pmos_3p3_RL7FD7 a_56_344# w_n230_n614# a_56_n484# a_n56_24# a_n144_68# a_n144_n484#
+ a_n56_n528# a_56_n208# a_n56_300# a_56_68# a_n144_n208# a_n144_344# a_n56_n252#
X0 a_56_n484# a_n56_n528# a_n144_n484# w_n230_n614# pfet_03v3 ad=0.308p pd=2.28u as=0.308p ps=2.28u w=0.7u l=0.56u
X1 a_56_n208# a_n56_n252# a_n144_n208# w_n230_n614# pfet_03v3 ad=0.308p pd=2.28u as=0.308p ps=2.28u w=0.7u l=0.56u
X2 a_56_344# a_n56_300# a_n144_344# w_n230_n614# pfet_03v3 ad=0.308p pd=2.28u as=0.308p ps=2.28u w=0.7u l=0.56u
X3 a_56_68# a_n56_24# a_n144_68# w_n230_n614# pfet_03v3 ad=0.308p pd=2.28u as=0.308p ps=2.28u w=0.7u l=0.56u
.ends

.subckt CP_1 UP VDD down VCTRL ITAIL1 ITAIL VSS
Xnmos_3p3_FYTGVN_4 ITAIL1 ITAIL1 VSS VSS nmos_3p3_FYTGVN
Xpmos_3p3_MDK7F7_0 ITAIL ITAIL VDD VDD pmos_3p3_MDK7F7
Xnmos_3p3_GYTGVN_0 ITAIL1 ITAIL1 ITAIL1 ITAIL1 VSS VSS nmos_3p3_GYTGVN
Xpmos_3p3_MDK7F7_1 ITAIL ITAIL VDD VDD pmos_3p3_MDK7F7
Xnmos_3p3_FYTGVN_7 VSS ITAIL1 ITAIL1 VSS nmos_3p3_FYTGVN
Xpmos_3p3_MDK7F7_2 m1_n362_n351# ITAIL VCTRL VDD pmos_3p3_MDK7F7
Xnmos_3p3_GYTGVN_1 VCTRL VCTRL ITAIL1 ITAIL1 m1_n133_n943# VSS nmos_3p3_GYTGVN
Xnmos_3p3_XYTGVN_0 UP VSS VSS a_n286_n10# a_n286_n10# UP VSS nmos_3p3_XYTGVN
Xpmos_3p3_MDK7F7_3 ITAIL ITAIL VDD VDD pmos_3p3_MDK7F7
Xnmos_3p3_GYTGVN_2 VSS VSS down down m1_n133_n943# VSS nmos_3p3_GYTGVN
Xpmos_3p3_MDK7F7_4 m1_n362_n351# ITAIL VCTRL VDD pmos_3p3_MDK7F7
Xnmos_3p3_GYTGVN_3 VSS VSS down down m1_n133_n943# VSS nmos_3p3_GYTGVN
Xpmos_3p3_MDK7F7_5 m1_n362_n351# ITAIL VCTRL VDD pmos_3p3_MDK7F7
Xpmos_3p3_MDK7F7_6 ITAIL ITAIL VDD VDD pmos_3p3_MDK7F7
Xpmos_3p3_MDK7F7_7 m1_n362_n351# ITAIL VCTRL VDD pmos_3p3_MDK7F7
Xpmos_3p3_MDK7F7_8 VCTRL ITAIL m1_n362_n351# VDD pmos_3p3_MDK7F7
Xpmos_3p3_MDK7F7_9 VDD ITAIL ITAIL VDD pmos_3p3_MDK7F7
Xpmos_3p3_MDK7F7_10 VCTRL ITAIL m1_n362_n351# VDD pmos_3p3_MDK7F7
Xpmos_3p3_MDK7F7_11 VDD ITAIL ITAIL VDD pmos_3p3_MDK7F7
Xpmos_3p3_MDK7F7_12 VDD ITAIL ITAIL VDD pmos_3p3_MDK7F7
Xpmos_3p3_MDK7F7_13 VCTRL ITAIL m1_n362_n351# VDD pmos_3p3_MDK7F7
Xpmos_3p3_MDK7F7_14 VDD ITAIL ITAIL VDD pmos_3p3_MDK7F7
Xpmos_3p3_MDK7F7_15 VCTRL ITAIL m1_n362_n351# VDD pmos_3p3_MDK7F7
Xpmos_3p3_MDK7F7_17 a_n286_n10# UP VDD VDD pmos_3p3_MDK7F7
Xpmos_3p3_MDK7F7_16 a_n286_n10# UP VDD VDD pmos_3p3_MDK7F7
Xpmos_3p3_RL7FD7_0 VDD VDD VDD a_n286_n10# m1_n362_n351# m1_n362_n351# a_n286_n10#
+ VDD a_n286_n10# VDD m1_n362_n351# m1_n362_n351# a_n286_n10# pmos_3p3_RL7FD7
Xpmos_3p3_MDK7F7_18 a_n286_n10# UP VDD VDD pmos_3p3_MDK7F7
Xpmos_3p3_MDK7F7_19 a_n286_n10# UP VDD VDD pmos_3p3_MDK7F7
Xnmos_3p3_FYTGVN_0 m1_n133_n943# ITAIL1 VCTRL VSS nmos_3p3_FYTGVN
Xnmos_3p3_FYTGVN_1 VCTRL ITAIL1 m1_n133_n943# VSS nmos_3p3_FYTGVN
Xnmos_3p3_FYTGVN_2 m1_n133_n943# down VSS VSS nmos_3p3_FYTGVN
.ends

.subckt ppolyf_u_7PLHK3 a_n1010_n2224# a_n1010_n362# a_n1310_n2846# a_n2210_2744#
+ a_n1610_n1396# a_1390_1294# a_490_1916# a_n1610_n568# a_1690_1088# a_1090_2122#
+ a_n1610_n2018# a_2290_n1190# a_n710_1916# a_190_n2846# a_2290_1294# a_n2210_n1396#
+ a_n2510_n568# a_490_n1396# a_n710_n1190# a_n110_2744# a_n1310_1294# a_n2210_n2018#
+ a_490_n2018# a_1390_n1190# a_n1610_1088# a_n1010_2122# a_190_n568# a_1690_1916#
+ a_n1010_n2846# a_2290_466# a_n2510_466# a_n1310_n1396# a_1990_260# a_n2210_1294#
+ a_n410_n568# a_n2510_1088# a_1090_2744# a_n1310_n2018# a_1690_466# a_n1910_466#
+ a_790_n362# a_1990_n2224# a_n2210_260# a_190_n1396# a_n410_n1190# a_190_1088# a_n1610_1916#
+ a_n110_1294# a_1390_n568# a_1390_260# a_n1610_260# a_190_n2018# a_1090_n1190# a_n410_1088#
+ a_n1010_2744# a_1090_466# a_n1310_466# a_n2510_1916# a_n1010_n1396# a_2290_n568#
+ a_1990_n362# a_n1010_n2018# a_1090_1294# a_790_2122# a_n1310_n568# a_190_1916# a_n1010_260#
+ a_1390_1088# a_1690_n2224# a_1990_n2846# a_790_260# a_n110_n1190# a_n410_1916# a_n710_466#
+ a_490_466# a_n2210_n568# a_n1910_n362# a_2290_1088# a_2290_n2224# a_n1010_1294#
+ w_n2694_n3030# a_n1310_1088# a_n410_260# a_1990_2122# a_n710_n2224# a_190_260# a_1390_1916#
+ a_n110_n568# a_n110_466# a_790_2744# a_1390_n2224# a_1690_n2846# a_n2210_1088# a_1990_n1396#
+ a_490_n362# a_2290_1916# a_n1910_2122# a_n1310_1916# a_1990_n2018# a_n710_n362#
+ a_2290_n2846# a_1090_n568# a_n1910_n1190# a_n110_1088# a_n410_n2224# a_1990_2744#
+ a_n710_n2846# a_n2210_1916# a_790_1294# a_1090_n2224# a_1390_n2846# a_n2510_n1190#
+ a_1690_n362# a_790_n1190# a_490_2122# a_1690_n1396# a_n1010_n568# a_1090_1088# a_n710_2122#
+ a_n110_1916# a_n1910_2744# a_1690_n2018# a_2290_n1396# a_n1610_n1190# a_n1610_n362#
+ a_n110_n2224# a_n410_n2846# a_1990_1294# a_n710_n1396# a_2290_n2018# a_n1010_1088#
+ a_1690_2122# a_1090_n2846# a_n2210_n1190# a_1090_1916# a_490_n1190# a_n2510_n362#
+ a_490_2744# a_n710_n2018# a_1390_n1396# a_1990_466# a_n710_2744# a_1390_n2018# a_n1910_1294#
+ a_2290_260# a_190_n362# a_n2510_260# a_n1610_2122# a_n1310_n1190# a_n410_n362# a_n1010_1916#
+ a_790_n568# a_n110_n2846# a_1690_260# a_n2210_466# a_n410_n1396# a_n1910_260# a_1690_2744#
+ a_1390_466# a_n2510_2122# a_190_n1190# a_n1610_466# a_n410_n2018# a_1090_n1396#
+ a_n1910_n2224# a_490_1294# a_1390_n362# a_790_1088# a_1090_n2018# a_n710_1294# a_190_2122#
+ a_1090_260# a_1990_n568# a_n1310_260# a_n410_2122# a_n1010_n1190# a_n1610_2744#
+ a_n2510_n2224# a_2290_n362# a_790_n2224# a_n1010_466# a_n110_n1396# a_790_466# a_n1310_n362#
+ a_n2510_2744# a_1690_1294# a_n110_n2018# a_n1910_n568# a_1990_1088# a_790_1916#
+ a_n1910_n2846# a_n1610_n2224# a_n710_260# a_1390_2122# a_490_260# a_n2210_n362#
+ a_190_2744# a_n410_466# a_190_466# a_2290_2122# a_n410_2744# a_n2510_n2846# a_n2210_n2224#
+ a_n1610_1294# a_490_n2224# a_790_n2846# a_n1910_1088# a_n1310_2122# a_490_n568#
+ a_n110_n362# a_n110_260# a_1990_1916# a_1990_n1190# a_n710_n568# a_n2510_1294# a_n1610_n2846#
+ a_n1310_n2224# a_1390_2744# a_n2210_2122# a_n1910_n1396# a_190_1294# a_n1910_n2018#
+ a_1090_n362# a_490_1088# a_n1910_1916# a_n2210_n2846# a_n410_1294# a_2290_2744#
+ a_190_n2224# a_490_n2846# a_1690_n568# a_790_n1396# a_n2510_n1396# a_n710_1088#
+ a_n110_2122# a_n1310_2744# a_n2510_n2018# a_790_n2018# a_1690_n1190#
X0 a_n410_260# a_n410_n362# w_n2694_n3030# ppolyf_u r_width=1.1u r_length=2.6u
X1 a_490_1916# a_490_1294# w_n2694_n3030# ppolyf_u r_width=1.1u r_length=2.6u
X2 a_n410_n568# a_n410_n1190# w_n2694_n3030# ppolyf_u r_width=1.1u r_length=2.6u
X3 a_790_2744# a_790_2122# w_n2694_n3030# ppolyf_u r_width=1.1u r_length=2.6u
X4 a_n2210_260# a_n2210_n362# w_n2694_n3030# ppolyf_u r_width=1.1u r_length=2.6u
X5 a_1990_260# a_1990_n362# w_n2694_n3030# ppolyf_u r_width=1.1u r_length=2.6u
X6 a_n110_1916# a_n110_1294# w_n2694_n3030# ppolyf_u r_width=1.1u r_length=2.6u
X7 a_n410_2744# a_n410_2122# w_n2694_n3030# ppolyf_u r_width=1.1u r_length=2.6u
X8 a_1990_1088# a_1990_466# w_n2694_n3030# ppolyf_u r_width=1.1u r_length=2.6u
X9 a_n2210_2744# a_n2210_2122# w_n2694_n3030# ppolyf_u r_width=1.1u r_length=2.6u
X10 a_1690_1916# a_1690_1294# w_n2694_n3030# ppolyf_u r_width=1.1u r_length=2.6u
X11 a_1990_2744# a_1990_2122# w_n2694_n3030# ppolyf_u r_width=1.1u r_length=2.6u
X12 a_n1010_n2224# a_n1010_n2846# w_n2694_n3030# ppolyf_u r_width=1.1u r_length=2.6u
X13 a_n1010_n1396# a_n1010_n2018# w_n2694_n3030# ppolyf_u r_width=1.1u r_length=2.6u
X14 a_n1610_260# a_n1610_n362# w_n2694_n3030# ppolyf_u r_width=1.1u r_length=2.6u
X15 a_n1310_n568# a_n1310_n1190# w_n2694_n3030# ppolyf_u r_width=1.1u r_length=2.6u
X16 a_n1310_1916# a_n1310_1294# w_n2694_n3030# ppolyf_u r_width=1.1u r_length=2.6u
X17 a_n1610_2744# a_n1610_2122# w_n2694_n3030# ppolyf_u r_width=1.1u r_length=2.6u
X18 a_1390_n2224# a_1390_n2846# w_n2694_n3030# ppolyf_u r_width=1.1u r_length=2.6u
X19 a_490_n2224# a_490_n2846# w_n2694_n3030# ppolyf_u r_width=1.1u r_length=2.6u
X20 a_1390_n1396# a_1390_n2018# w_n2694_n3030# ppolyf_u r_width=1.1u r_length=2.6u
X21 a_490_n1396# a_490_n2018# w_n2694_n3030# ppolyf_u r_width=1.1u r_length=2.6u
X22 a_1090_260# a_1090_n362# w_n2694_n3030# ppolyf_u r_width=1.1u r_length=2.6u
X23 a_n2210_n568# a_n2210_n1190# w_n2694_n3030# ppolyf_u r_width=1.1u r_length=2.6u
X24 a_1690_n568# a_1690_n1190# w_n2694_n3030# ppolyf_u r_width=1.1u r_length=2.6u
X25 a_790_n568# a_790_n1190# w_n2694_n3030# ppolyf_u r_width=1.1u r_length=2.6u
X26 a_1090_2744# a_1090_2122# w_n2694_n3030# ppolyf_u r_width=1.1u r_length=2.6u
X27 a_2290_n2224# a_2290_n2846# w_n2694_n3030# ppolyf_u r_width=1.1u r_length=2.6u
X28 a_n710_260# a_n710_n362# w_n2694_n3030# ppolyf_u r_width=1.1u r_length=2.6u
X29 a_2290_n1396# a_2290_n2018# w_n2694_n3030# ppolyf_u r_width=1.1u r_length=2.6u
X30 a_790_1916# a_790_1294# w_n2694_n3030# ppolyf_u r_width=1.1u r_length=2.6u
X31 a_n110_n568# a_n110_n1190# w_n2694_n3030# ppolyf_u r_width=1.1u r_length=2.6u
X32 a_n2510_260# a_n2510_n362# w_n2694_n3030# ppolyf_u r_width=1.1u r_length=2.6u
X33 a_n1910_n2224# a_n1910_n2846# w_n2694_n3030# ppolyf_u r_width=1.1u r_length=2.6u
X34 a_n410_1916# a_n410_1294# w_n2694_n3030# ppolyf_u r_width=1.1u r_length=2.6u
X35 a_n710_2744# a_n710_2122# w_n2694_n3030# ppolyf_u r_width=1.1u r_length=2.6u
X36 a_n1910_n1396# a_n1910_n2018# w_n2694_n3030# ppolyf_u r_width=1.1u r_length=2.6u
X37 a_n110_1088# a_n110_466# w_n2694_n3030# ppolyf_u r_width=1.1u r_length=2.6u
X38 a_n2210_1916# a_n2210_1294# w_n2694_n3030# ppolyf_u r_width=1.1u r_length=2.6u
X39 a_1990_1916# a_1990_1294# w_n2694_n3030# ppolyf_u r_width=1.1u r_length=2.6u
X40 a_n2510_2744# a_n2510_2122# w_n2694_n3030# ppolyf_u r_width=1.1u r_length=2.6u
X41 a_190_1088# a_190_466# w_n2694_n3030# ppolyf_u r_width=1.1u r_length=2.6u
X42 a_n710_n2224# a_n710_n2846# w_n2694_n3030# ppolyf_u r_width=1.1u r_length=2.6u
X43 a_n1910_260# a_n1910_n362# w_n2694_n3030# ppolyf_u r_width=1.1u r_length=2.6u
X44 a_n410_1088# a_n410_466# w_n2694_n3030# ppolyf_u r_width=1.1u r_length=2.6u
X45 a_n710_n1396# a_n710_n2018# w_n2694_n3030# ppolyf_u r_width=1.1u r_length=2.6u
X46 a_190_260# a_190_n362# w_n2694_n3030# ppolyf_u r_width=1.1u r_length=2.6u
X47 a_n1610_1916# a_n1610_1294# w_n2694_n3030# ppolyf_u r_width=1.1u r_length=2.6u
X48 a_n1010_n568# a_n1010_n1190# w_n2694_n3030# ppolyf_u r_width=1.1u r_length=2.6u
X49 a_490_1088# a_490_466# w_n2694_n3030# ppolyf_u r_width=1.1u r_length=2.6u
X50 a_n1910_2744# a_n1910_2122# w_n2694_n3030# ppolyf_u r_width=1.1u r_length=2.6u
X51 a_1090_n2224# a_1090_n2846# w_n2694_n3030# ppolyf_u r_width=1.1u r_length=2.6u
X52 a_190_n2224# a_190_n2846# w_n2694_n3030# ppolyf_u r_width=1.1u r_length=2.6u
X53 a_190_2744# a_190_2122# w_n2694_n3030# ppolyf_u r_width=1.1u r_length=2.6u
X54 a_1090_n1396# a_1090_n2018# w_n2694_n3030# ppolyf_u r_width=1.1u r_length=2.6u
X55 a_190_n1396# a_190_n2018# w_n2694_n3030# ppolyf_u r_width=1.1u r_length=2.6u
X56 a_1390_260# a_1390_n362# w_n2694_n3030# ppolyf_u r_width=1.1u r_length=2.6u
X57 a_1390_n568# a_1390_n1190# w_n2694_n3030# ppolyf_u r_width=1.1u r_length=2.6u
X58 a_n710_1088# a_n710_466# w_n2694_n3030# ppolyf_u r_width=1.1u r_length=2.6u
X59 a_1090_1916# a_1090_1294# w_n2694_n3030# ppolyf_u r_width=1.1u r_length=2.6u
X60 a_490_n568# a_490_n1190# w_n2694_n3030# ppolyf_u r_width=1.1u r_length=2.6u
X61 a_1390_2744# a_1390_2122# w_n2694_n3030# ppolyf_u r_width=1.1u r_length=2.6u
X62 a_790_1088# a_790_466# w_n2694_n3030# ppolyf_u r_width=1.1u r_length=2.6u
X63 a_n1010_1088# a_n1010_466# w_n2694_n3030# ppolyf_u r_width=1.1u r_length=2.6u
X64 a_n1610_n2224# a_n1610_n2846# w_n2694_n3030# ppolyf_u r_width=1.1u r_length=2.6u
X65 a_n710_1916# a_n710_1294# w_n2694_n3030# ppolyf_u r_width=1.1u r_length=2.6u
X66 a_n1610_n1396# a_n1610_n2018# w_n2694_n3030# ppolyf_u r_width=1.1u r_length=2.6u
X67 a_2290_n568# a_2290_n1190# w_n2694_n3030# ppolyf_u r_width=1.1u r_length=2.6u
X68 a_n2510_1916# a_n2510_1294# w_n2694_n3030# ppolyf_u r_width=1.1u r_length=2.6u
X69 a_n1010_260# a_n1010_n362# w_n2694_n3030# ppolyf_u r_width=1.1u r_length=2.6u
X70 a_n1910_n568# a_n1910_n1190# w_n2694_n3030# ppolyf_u r_width=1.1u r_length=2.6u
X71 a_n2510_n2224# a_n2510_n2846# w_n2694_n3030# ppolyf_u r_width=1.1u r_length=2.6u
X72 a_n1010_2744# a_n1010_2122# w_n2694_n3030# ppolyf_u r_width=1.1u r_length=2.6u
X73 a_1990_n2224# a_1990_n2846# w_n2694_n3030# ppolyf_u r_width=1.1u r_length=2.6u
X74 a_2290_260# a_2290_n362# w_n2694_n3030# ppolyf_u r_width=1.1u r_length=2.6u
X75 a_n1310_1088# a_n1310_466# w_n2694_n3030# ppolyf_u r_width=1.1u r_length=2.6u
X76 a_n2510_n1396# a_n2510_n2018# w_n2694_n3030# ppolyf_u r_width=1.1u r_length=2.6u
X77 a_1990_n1396# a_1990_n2018# w_n2694_n3030# ppolyf_u r_width=1.1u r_length=2.6u
X78 a_2290_2744# a_2290_2122# w_n2694_n3030# ppolyf_u r_width=1.1u r_length=2.6u
X79 a_n410_n2224# a_n410_n2846# w_n2694_n3030# ppolyf_u r_width=1.1u r_length=2.6u
X80 a_n410_n1396# a_n410_n2018# w_n2694_n3030# ppolyf_u r_width=1.1u r_length=2.6u
X81 a_490_260# a_490_n362# w_n2694_n3030# ppolyf_u r_width=1.1u r_length=2.6u
X82 a_n2210_1088# a_n2210_466# w_n2694_n3030# ppolyf_u r_width=1.1u r_length=2.6u
X83 a_n1910_1916# a_n1910_1294# w_n2694_n3030# ppolyf_u r_width=1.1u r_length=2.6u
X84 a_n110_260# a_n110_n362# w_n2694_n3030# ppolyf_u r_width=1.1u r_length=2.6u
X85 a_n710_n568# a_n710_n1190# w_n2694_n3030# ppolyf_u r_width=1.1u r_length=2.6u
X86 a_1090_1088# a_1090_466# w_n2694_n3030# ppolyf_u r_width=1.1u r_length=2.6u
X87 a_190_1916# a_190_1294# w_n2694_n3030# ppolyf_u r_width=1.1u r_length=2.6u
X88 a_490_2744# a_490_2122# w_n2694_n3030# ppolyf_u r_width=1.1u r_length=2.6u
X89 a_n1610_1088# a_n1610_466# w_n2694_n3030# ppolyf_u r_width=1.1u r_length=2.6u
X90 a_1690_260# a_1690_n362# w_n2694_n3030# ppolyf_u r_width=1.1u r_length=2.6u
X91 a_n110_2744# a_n110_2122# w_n2694_n3030# ppolyf_u r_width=1.1u r_length=2.6u
X92 a_1090_n568# a_1090_n1190# w_n2694_n3030# ppolyf_u r_width=1.1u r_length=2.6u
X93 a_1390_1916# a_1390_1294# w_n2694_n3030# ppolyf_u r_width=1.1u r_length=2.6u
X94 a_190_n568# a_190_n1190# w_n2694_n3030# ppolyf_u r_width=1.1u r_length=2.6u
X95 a_1690_2744# a_1690_2122# w_n2694_n3030# ppolyf_u r_width=1.1u r_length=2.6u
X96 a_n2510_1088# a_n2510_466# w_n2694_n3030# ppolyf_u r_width=1.1u r_length=2.6u
X97 a_n1310_n2224# a_n1310_n2846# w_n2694_n3030# ppolyf_u r_width=1.1u r_length=2.6u
X98 a_1390_1088# a_1390_466# w_n2694_n3030# ppolyf_u r_width=1.1u r_length=2.6u
X99 a_n1910_1088# a_n1910_466# w_n2694_n3030# ppolyf_u r_width=1.1u r_length=2.6u
X100 a_n1310_n1396# a_n1310_n2018# w_n2694_n3030# ppolyf_u r_width=1.1u r_length=2.6u
X101 a_n1310_260# a_n1310_n362# w_n2694_n3030# ppolyf_u r_width=1.1u r_length=2.6u
X102 a_n1610_n568# a_n1610_n1190# w_n2694_n3030# ppolyf_u r_width=1.1u r_length=2.6u
X103 a_2290_1088# a_2290_466# w_n2694_n3030# ppolyf_u r_width=1.1u r_length=2.6u
X104 a_n1010_1916# a_n1010_1294# w_n2694_n3030# ppolyf_u r_width=1.1u r_length=2.6u
X105 a_n2210_n2224# a_n2210_n2846# w_n2694_n3030# ppolyf_u r_width=1.1u r_length=2.6u
X106 a_n1310_2744# a_n1310_2122# w_n2694_n3030# ppolyf_u r_width=1.1u r_length=2.6u
X107 a_1690_n2224# a_1690_n2846# w_n2694_n3030# ppolyf_u r_width=1.1u r_length=2.6u
X108 a_790_n2224# a_790_n2846# w_n2694_n3030# ppolyf_u r_width=1.1u r_length=2.6u
X109 a_1690_n1396# a_1690_n2018# w_n2694_n3030# ppolyf_u r_width=1.1u r_length=2.6u
X110 a_n2210_n1396# a_n2210_n2018# w_n2694_n3030# ppolyf_u r_width=1.1u r_length=2.6u
X111 a_790_n1396# a_790_n2018# w_n2694_n3030# ppolyf_u r_width=1.1u r_length=2.6u
X112 a_1690_1088# a_1690_466# w_n2694_n3030# ppolyf_u r_width=1.1u r_length=2.6u
X113 a_2290_1916# a_2290_1294# w_n2694_n3030# ppolyf_u r_width=1.1u r_length=2.6u
X114 a_n110_n2224# a_n110_n2846# w_n2694_n3030# ppolyf_u r_width=1.1u r_length=2.6u
X115 a_n2510_n568# a_n2510_n1190# w_n2694_n3030# ppolyf_u r_width=1.1u r_length=2.6u
X116 a_n110_n1396# a_n110_n2018# w_n2694_n3030# ppolyf_u r_width=1.1u r_length=2.6u
X117 a_1990_n568# a_1990_n1190# w_n2694_n3030# ppolyf_u r_width=1.1u r_length=2.6u
X118 a_790_260# a_790_n362# w_n2694_n3030# ppolyf_u r_width=1.1u r_length=2.6u
.ends

.subckt RES_74k P M VDD
Xppolyf_u_7PLHK3_0 P a_5616_1587# P P m1_4716_583# a_8016_3243# a_7116_3895# a_5016_1411#
+ a_8016_3067# P a_5016_n69# P a_5916_3895# P P a_4414_642# P a_7116_583# a_5916_759#
+ P a_5016_3243# m1_4416_n69# a_6816_n69# a_7716_759# a_5016_3067# P a_6816_1411#
+ a_8316_3895# P P P a_5316_583# a_8316_2239# m1_4416_3243# a_6216_1411# P P a_5016_n69#
+ m1_8316_2415# a_4716_2415# a_7416_1587# P a_4414_2298# a_6516_583# a_5916_759# a_6816_3067#
+ m1_4716_3895# a_6216_3243# a_8016_1411# a_7716_2239# m1_4716_2239# a_6816_n69# a_7716_759#
+ a_6216_3067# P a_7716_2415# a_5316_2415# P a_5316_583# P a_8614_1470# a_5616_n69#
+ a_7416_3243# P a_5016_1411# a_6516_3895# a_5316_2239# a_8016_3067# P P a_7116_2239#
+ a_6516_759# a_5916_3895# a_5916_2415# a_7116_2415# m1_4416_1411# m1_4416_1587# P
+ P a_5616_3243# VDD a_5016_3067# a_5916_2239# P P a_6516_2239# a_7716_3895# a_6216_1411#
+ a_6516_2415# P P P m1_4416_3067# a_8316_583# a_6816_1587# P P a_5316_3895# M a_5616_1587#
+ P a_7416_1411# a_4716_759# a_6216_3067# P P P P a_7416_3243# P P P a_8016_1587#
+ a_7116_759# P a_8316_583# a_5616_1411# a_7416_3067# P a_6516_3895# P a_8016_n69#
+ P a_4716_759# a_5016_1587# P P a_8614_3126# a_5916_583# P a_5616_3067# P P a_4414_642#
+ a_7716_3895# a_7116_759# P P a_5616_n69# a_7716_583# m1_8316_2415# P a_8016_n69#
+ m1_4416_3243# P a_6816_1587# P P a_5316_759# a_6216_1587# a_5316_3895# a_7416_1411#
+ P a_8316_2239# a_4414_2298# a_5916_583# m1_4716_2239# P a_7716_2415# P a_6516_759#
+ a_4716_2415# a_6216_n69# a_7716_583# P a_6816_3243# a_8016_1587# a_7416_3067# a_7416_n69#
+ a_5616_3243# P a_7716_2239# a_8614_1470# a_5316_2239# P a_5316_759# P P P P a_5316_2415#
+ a_6516_583# a_7116_2415# a_5016_1587# P a_8016_3243# a_6216_n69# m1_4416_1411# a_8614_3126#
+ a_7116_3895# P P a_5916_2239# P a_7116_2239# m1_4416_1587# P a_5916_2415# a_6516_2415#
+ P P P P a_5016_3243# P P m1_4416_3067# P a_6816_1411# a_6216_1587# a_6516_2239#
+ a_8316_3895# m1_8316_759# a_5616_1411# P P P P P m1_4716_583# a_6816_3243# m1_4416_n69#
+ a_7416_1587# a_6816_3067# m1_4716_3895# P a_6216_3243# P P P a_8016_1411# a_7116_583#
+ P a_5616_3067# P P P a_7416_n69# m1_8316_759# ppolyf_u_7PLHK3
.ends

.subckt nmos_3p3_6FEA4B a_n52_n50# a_256_n94# a_52_n94# a_356_n50# a_n256_n50# a_n444_n50#
+ a_152_n50# a_n356_n94# a_n152_n94# VSUBS
X0 a_152_n50# a_52_n94# a_n52_n50# VSUBS nfet_03v3 ad=0.13p pd=1.02u as=0.13p ps=1.02u w=0.5u l=0.5u
X1 a_n52_n50# a_n152_n94# a_n256_n50# VSUBS nfet_03v3 ad=0.13p pd=1.02u as=0.13p ps=1.02u w=0.5u l=0.5u
X2 a_n256_n50# a_n356_n94# a_n444_n50# VSUBS nfet_03v3 ad=0.13p pd=1.02u as=0.22p ps=1.88u w=0.5u l=0.5u
X3 a_356_n50# a_256_n94# a_152_n50# VSUBS nfet_03v3 ad=0.22p pd=1.88u as=0.13p ps=1.02u w=0.5u l=0.5u
.ends

.subckt pmos_3p3_KYEELV a_152_68# a_n444_n168# a_n256_68# a_n52_68# a_52_24# a_152_n168#
+ a_n444_68# a_356_68# a_256_n212# a_n256_n168# a_n356_n212# a_n152_24# w_n530_n298#
+ a_52_n212# a_n52_n168# a_n152_n212# a_n356_24# a_356_n168# a_256_24#
X0 a_n256_n168# a_n356_n212# a_n444_n168# w_n530_n298# pfet_03v3 ad=0.13p pd=1.02u as=0.22p ps=1.88u w=0.5u l=0.5u
X1 a_356_n168# a_256_n212# a_152_n168# w_n530_n298# pfet_03v3 ad=0.22p pd=1.88u as=0.13p ps=1.02u w=0.5u l=0.5u
X2 a_152_68# a_52_24# a_n52_68# w_n530_n298# pfet_03v3 ad=0.13p pd=1.02u as=0.13p ps=1.02u w=0.5u l=0.5u
X3 a_n52_68# a_n152_24# a_n256_68# w_n530_n298# pfet_03v3 ad=0.13p pd=1.02u as=0.13p ps=1.02u w=0.5u l=0.5u
X4 a_152_n168# a_52_n212# a_n52_n168# w_n530_n298# pfet_03v3 ad=0.13p pd=1.02u as=0.13p ps=1.02u w=0.5u l=0.5u
X5 a_356_68# a_256_24# a_152_68# w_n530_n298# pfet_03v3 ad=0.22p pd=1.88u as=0.13p ps=1.02u w=0.5u l=0.5u
X6 a_n52_n168# a_n152_n212# a_n256_n168# w_n530_n298# pfet_03v3 ad=0.13p pd=1.02u as=0.13p ps=1.02u w=0.5u l=0.5u
X7 a_n256_68# a_n356_24# a_n444_68# w_n530_n298# pfet_03v3 ad=0.13p pd=1.02u as=0.22p ps=1.88u w=0.5u l=0.5u
.ends

.subckt INV_2 VDD VSS IN OUT
Xnmos_3p3_6FEA4B_0 VSS IN IN VSS OUT VSS OUT IN IN VSS nmos_3p3_6FEA4B
Xpmos_3p3_KYEELV_0 OUT VDD OUT VDD IN OUT VDD VDD IN OUT IN IN VDD IN VDD IN IN VDD
+ IN pmos_3p3_KYEELV
.ends

.subckt pmos_3p3_YMKZL5 a_n138_n84# a_50_n84# a_n50_n128# w_n224_n214#
X0 a_50_n84# a_n50_n128# a_n138_n84# w_n224_n214# pfet_03v3 ad=0.37p pd=2.56u as=0.37p ps=2.56u w=0.84u l=0.5u
.ends

.subckt nmos_3p3_UKFAHE a_n138_n84# a_50_n84# a_n50_n128# VSUBS
X0 a_50_n84# a_n50_n128# a_n138_n84# VSUBS nfet_03v3 ad=0.37p pd=2.56u as=0.37p ps=2.56u w=0.84u l=0.5u
.ends

.subckt Tr_Gate VSS OUT CLK VDD IN
Xpmos_3p3_YMKZL5_0 OUT IN a_174_n81# VDD pmos_3p3_YMKZL5
Xpmos_3p3_YMKZL5_1 IN OUT a_174_n81# VDD pmos_3p3_YMKZL5
Xpmos_3p3_YMKZL5_2 OUT IN a_174_n81# VDD pmos_3p3_YMKZL5
Xpmos_3p3_YMKZL5_3 IN OUT a_174_n81# VDD pmos_3p3_YMKZL5
Xnmos_3p3_UKFAHE_0 OUT IN CLK VSS nmos_3p3_UKFAHE
Xpmos_3p3_YMKZL5_4 a_174_n81# VDD CLK VDD pmos_3p3_YMKZL5
Xpmos_3p3_YMKZL5_5 VDD a_174_n81# CLK VDD pmos_3p3_YMKZL5
Xnmos_3p3_UKFAHE_1 IN OUT CLK VSS nmos_3p3_UKFAHE
Xpmos_3p3_YMKZL5_6 a_174_n81# VDD CLK VDD pmos_3p3_YMKZL5
Xnmos_3p3_UKFAHE_2 OUT IN CLK VSS nmos_3p3_UKFAHE
Xpmos_3p3_YMKZL5_7 VDD a_174_n81# CLK VDD pmos_3p3_YMKZL5
Xnmos_3p3_UKFAHE_3 OUT IN CLK VSS nmos_3p3_UKFAHE
Xnmos_3p3_UKFAHE_4 VSS a_174_n81# CLK VSS nmos_3p3_UKFAHE
Xnmos_3p3_UKFAHE_5 a_174_n81# VSS CLK VSS nmos_3p3_UKFAHE
.ends

.subckt A_MUX SEL IN2 VDD VSS OUT IN1
XINV_2_0 VDD VSS SEL INV_2_0/OUT INV_2
XTr_Gate_0 VSS OUT SEL VDD IN2 Tr_Gate
XTr_Gate_1 VSS OUT INV_2_0/OUT VDD IN1 Tr_Gate
.ends

.subckt nmos_3p3_MGEA4B a_n138_n50# a_50_n50# a_n50_n94# VSUBS
X0 a_50_n50# a_n50_n94# a_n138_n50# VSUBS nfet_03v3 ad=0.22p pd=1.88u as=0.22p ps=1.88u w=0.5u l=0.5u
.ends

.subckt pmos_3p3_KG2TLV a_n52_n50# w_n326_n180# a_52_n94# a_152_n50# a_n240_n50# a_n152_n94#
X0 a_152_n50# a_52_n94# a_n52_n50# w_n326_n180# pfet_03v3 ad=0.22p pd=1.88u as=0.13p ps=1.02u w=0.5u l=0.5u
X1 a_n52_n50# a_n152_n94# a_n240_n50# w_n326_n180# pfet_03v3 ad=0.13p pd=1.02u as=0.22p ps=1.88u w=0.5u l=0.5u
.ends

.subckt INV_mag VDD IN VSS OUT
Xnmos_3p3_MGEA4B_0 VSS OUT IN VSS nmos_3p3_MGEA4B
Xpmos_3p3_KG2TLV_0 OUT VDD IN VDD VDD IN pmos_3p3_KG2TLV
.ends

.subckt nmos_3p3_3JEA4B a_254_n50# a_n154_n50# a_n342_n50# a_n254_n94# a_50_n50# a_n50_n94#
+ a_154_n94# VSUBS
X0 a_50_n50# a_n50_n94# a_n154_n50# VSUBS nfet_03v3 ad=0.13p pd=1.02u as=0.13p ps=1.02u w=0.5u l=0.5u
X1 a_n154_n50# a_n254_n94# a_n342_n50# VSUBS nfet_03v3 ad=0.13p pd=1.02u as=0.22p ps=1.88u w=0.5u l=0.5u
X2 a_254_n50# a_154_n94# a_50_n50# VSUBS nfet_03v3 ad=0.22p pd=1.88u as=0.13p ps=1.02u w=0.5u l=0.5u
.ends

.subckt nmos_3p3_8FEA4B a_n52_n50# a_52_n94# a_152_n50# a_n240_n50# a_n152_n94# VSUBS
X0 a_152_n50# a_52_n94# a_n52_n50# VSUBS nfet_03v3 ad=0.22p pd=1.88u as=0.13p ps=1.02u w=0.5u l=0.5u
X1 a_n52_n50# a_n152_n94# a_n240_n50# VSUBS nfet_03v3 ad=0.13p pd=1.02u as=0.22p ps=1.88u w=0.5u l=0.5u
.ends

.subckt pmos_3p3_K83TLV a_458_n50# a_n358_n50# a_n546_n50# a_254_n50# a_n154_n50#
+ a_n458_n94# a_n254_n94# a_50_n50# w_n632_n180# a_358_n94# a_n50_n94# a_154_n94#
X0 a_50_n50# a_n50_n94# a_n154_n50# w_n632_n180# pfet_03v3 ad=0.13p pd=1.02u as=0.13p ps=1.02u w=0.5u l=0.5u
X1 a_n154_n50# a_n254_n94# a_n358_n50# w_n632_n180# pfet_03v3 ad=0.13p pd=1.02u as=0.13p ps=1.02u w=0.5u l=0.5u
X2 a_n358_n50# a_n458_n94# a_n546_n50# w_n632_n180# pfet_03v3 ad=0.13p pd=1.02u as=0.22p ps=1.88u w=0.5u l=0.5u
X3 a_254_n50# a_154_n94# a_50_n50# w_n632_n180# pfet_03v3 ad=0.13p pd=1.02u as=0.13p ps=1.02u w=0.5u l=0.5u
X4 a_458_n50# a_358_n94# a_254_n50# w_n632_n180# pfet_03v3 ad=0.22p pd=1.88u as=0.13p ps=1.02u w=0.5u l=0.5u
.ends

.subckt pmos_3p3_HMK9E7 a_n866_n94# a_662_n50# a_n562_n50# a_n662_n94# a_458_n50#
+ a_n358_n50# a_970_n94# a_254_n50# a_n154_n50# a_n458_n94# w_n1244_n180# a_766_n94#
+ a_n254_n94# a_562_n94# a_50_n50# a_358_n94# a_n50_n94# a_1070_n50# a_n970_n50# a_n1158_n50#
+ a_154_n94# a_n1070_n94# a_866_n50# a_n766_n50#
X0 a_866_n50# a_766_n94# a_662_n50# w_n1244_n180# pfet_03v3 ad=0.13p pd=1.02u as=0.13p ps=1.02u w=0.5u l=0.5u
X1 a_50_n50# a_n50_n94# a_n154_n50# w_n1244_n180# pfet_03v3 ad=0.13p pd=1.02u as=0.13p ps=1.02u w=0.5u l=0.5u
X2 a_1070_n50# a_970_n94# a_866_n50# w_n1244_n180# pfet_03v3 ad=0.22p pd=1.88u as=0.13p ps=1.02u w=0.5u l=0.5u
X3 a_n154_n50# a_n254_n94# a_n358_n50# w_n1244_n180# pfet_03v3 ad=0.13p pd=1.02u as=0.13p ps=1.02u w=0.5u l=0.5u
X4 a_n358_n50# a_n458_n94# a_n562_n50# w_n1244_n180# pfet_03v3 ad=0.13p pd=1.02u as=0.13p ps=1.02u w=0.5u l=0.5u
X5 a_n562_n50# a_n662_n94# a_n766_n50# w_n1244_n180# pfet_03v3 ad=0.13p pd=1.02u as=0.13p ps=1.02u w=0.5u l=0.5u
X6 a_n766_n50# a_n866_n94# a_n970_n50# w_n1244_n180# pfet_03v3 ad=0.13p pd=1.02u as=0.13p ps=1.02u w=0.5u l=0.5u
X7 a_n970_n50# a_n1070_n94# a_n1158_n50# w_n1244_n180# pfet_03v3 ad=0.13p pd=1.02u as=0.22p ps=1.88u w=0.5u l=0.5u
X8 a_254_n50# a_154_n94# a_50_n50# w_n1244_n180# pfet_03v3 ad=0.13p pd=1.02u as=0.13p ps=1.02u w=0.5u l=0.5u
X9 a_458_n50# a_358_n94# a_254_n50# w_n1244_n180# pfet_03v3 ad=0.13p pd=1.02u as=0.13p ps=1.02u w=0.5u l=0.5u
X10 a_662_n50# a_562_n94# a_458_n50# w_n1244_n180# pfet_03v3 ad=0.13p pd=1.02u as=0.13p ps=1.02u w=0.5u l=0.5u
.ends

.subckt PFD_2 a_1730_n81# m1_29_n1176# m1_711_n317# a_173_n912# a_582_n305# m1_n1_460#
+ a_2150_n931# a_174_n409# w_253_2# VSUBS
Xnmos_3p3_3JEA4B_0 m1_29_n1176# m1_29_n1176# m1_711_n317# a_2150_n931# m1_711_n317#
+ a_2150_n931# a_2150_n931# VSUBS nmos_3p3_3JEA4B
Xnmos_3p3_8FEA4B_0 m1_29_n1176# a_172_278# m1_94_n545# m1_94_n545# a_172_278# VSUBS
+ nmos_3p3_8FEA4B
Xnmos_3p3_3JEA4B_1 m1_711_n317# m1_711_n317# m1_1055_n805# a_582_n305# m1_1055_n805#
+ a_582_n305# a_582_n305# VSUBS nmos_3p3_3JEA4B
Xpmos_3p3_KG2TLV_0 a_582_n305# w_253_2# a_582_n305# m1_1654_n314# m1_1654_n314# a_582_n305#
+ pmos_3p3_KG2TLV
Xnmos_3p3_8FEA4B_1 a_582_n305# a_174_n409# m1_94_n545# m1_94_n545# a_174_n409# VSUBS
+ nmos_3p3_8FEA4B
Xnmos_3p3_3JEA4B_2 m1_29_n1176# m1_29_n1176# m1_1055_n805# a_582_n305# m1_1055_n805#
+ a_582_n305# a_582_n305# VSUBS nmos_3p3_3JEA4B
Xpmos_3p3_KG2TLV_1 a_172_278# w_253_2# a_174_n409# m1_n1_460# m1_n1_460# a_174_n409#
+ pmos_3p3_KG2TLV
Xnmos_3p3_8FEA4B_2 a_172_278# a_173_n912# m1_98_n794# m1_98_n794# a_173_n912# VSUBS
+ nmos_3p3_8FEA4B
Xpmos_3p3_KG2TLV_2 m1_n1_460# w_253_2# a_1730_n81# m1_1654_n314# m1_1654_n314# a_1730_n81#
+ pmos_3p3_KG2TLV
Xnmos_3p3_8FEA4B_3 m1_98_n794# a_2150_n931# m1_29_n1176# m1_29_n1176# a_2150_n931#
+ VSUBS nmos_3p3_8FEA4B
Xpmos_3p3_K83TLV_0 m1_711_n317# m1_711_n317# m1_n1_460# m1_n1_460# m1_n1_460# a_582_n305#
+ a_582_n305# m1_711_n317# w_253_2# a_582_n305# a_582_n305# a_582_n305# pmos_3p3_K83TLV
Xpmos_3p3_HMK9E7_0 a_172_278# a_582_n305# a_582_n305# a_172_278# m1_n1_460# m1_n1_460#
+ a_172_278# a_582_n305# a_582_n305# a_172_278# w_253_2# a_172_278# a_172_278# a_172_278#
+ m1_n1_460# a_172_278# a_172_278# a_582_n305# a_582_n305# m1_n1_460# a_172_278# a_172_278#
+ m1_n1_460# m1_n1_460# pmos_3p3_HMK9E7
.ends

.subckt pmos_3p3_K82TLV a_n138_n50# a_50_n50# a_n50_n94# w_n224_n180#
X0 a_50_n50# a_n50_n94# a_n138_n50# w_n224_n180# pfet_03v3 ad=0.22p pd=1.88u as=0.22p ps=1.88u w=0.5u l=0.5u
.ends

.subckt PFD_2_down a_1730_n81# m1_711_n317# a_173_n912# a_1946_n896# a_582_n305# m1_n1_460#
+ m1_29_n1186# a_174_n409# w_253_2# VSUBS
Xpmos_3p3_K82TLV_0 m1_n1_460# m1_711_n317# a_582_n305# w_253_2# pmos_3p3_K82TLV
Xnmos_3p3_3JEA4B_0 m1_29_n1186# m1_29_n1186# m1_711_n317# a_173_n912# m1_711_n317#
+ a_173_n912# a_173_n912# VSUBS nmos_3p3_3JEA4B
Xnmos_3p3_8FEA4B_0 m1_29_n1186# a_172_278# m1_94_n545# m1_94_n545# a_172_278# VSUBS
+ nmos_3p3_8FEA4B
Xnmos_3p3_3JEA4B_1 m1_711_n317# m1_711_n317# m1_1055_n805# a_582_n305# m1_1055_n805#
+ a_582_n305# a_582_n305# VSUBS nmos_3p3_3JEA4B
Xpmos_3p3_KG2TLV_0 a_582_n305# w_253_2# a_582_n305# m1_1654_n314# m1_1654_n314# a_582_n305#
+ pmos_3p3_KG2TLV
Xnmos_3p3_8FEA4B_1 a_582_n305# a_174_n409# m1_94_n545# m1_94_n545# a_174_n409# VSUBS
+ nmos_3p3_8FEA4B
Xnmos_3p3_3JEA4B_2 m1_29_n1186# m1_29_n1186# m1_1055_n805# a_582_n305# m1_1055_n805#
+ a_582_n305# a_582_n305# VSUBS nmos_3p3_3JEA4B
Xpmos_3p3_KG2TLV_1 a_172_278# w_253_2# a_174_n409# m1_n1_460# m1_n1_460# a_174_n409#
+ pmos_3p3_KG2TLV
Xnmos_3p3_8FEA4B_2 a_172_278# a_173_n912# m1_98_n794# m1_98_n794# a_173_n912# VSUBS
+ nmos_3p3_8FEA4B
Xpmos_3p3_KG2TLV_2 m1_n1_460# w_253_2# a_1730_n81# m1_1654_n314# m1_1654_n314# a_1730_n81#
+ pmos_3p3_KG2TLV
Xnmos_3p3_8FEA4B_3 m1_98_n794# a_1946_n896# m1_29_n1186# m1_29_n1186# a_1946_n896#
+ VSUBS nmos_3p3_8FEA4B