* NGSPICE file created from CLK_div_99_mag_flat.ext - technology: gf180mcuC

.subckt CLK_div_99_mag_flat VSS Vdiv99 RST CLK VDD
X0 a_4437_8231# CLK_div_3_mag_0.Q0.t3 CLK_div_3_mag_0.or_2_mag_0.GF_INV_MAG_1.IN VDD.t315 pfet_03v3 ad=0.416p pd=2.12u as=0.704p ps=4.08u w=1.6u l=0.28u
X1 CLK_DIV_11_mag_new_0.Q2 CLK_DIV_11_mag_new_0.JK_FF_mag_1.nand2_mag_1.IN2 VDD.t386 VDD.t385 pfet_03v3 ad=0.208p pd=1.32u as=0.352p ps=2.48u w=0.8u l=0.28u
X2 CLK_DIV_11_mag_new_0.JK_FF_mag_0.nand2_mag_1.IN2 CLK_DIV_11_mag_new_0.JK_FF_mag_0.nand3_mag_1.IN1 VDD.t498 VDD.t497 pfet_03v3 ad=0.208p pd=1.32u as=0.352p ps=2.48u w=0.8u l=0.28u
X3 VSS CLK_div_3_mag_1.JK_FF_mag_0.nand2_mag_1.IN2 a_10363_9798# VSS.t313 nfet_03v3 ad=0.194p pd=1.76u as=0.114p ps=0.96u w=0.44u l=0.28u
X4 CLK_DIV_11_mag_new_0.JK_FF_mag_2.nand3_mag_1.OUT CLK_DIV_11_mag_new_0.JK_FF_mag_2.nand3_mag_1.IN1 a_12501_11889# VSS.t22 nfet_03v3 ad=0.29p pd=2.2u as=0.172p ps=1.18u w=0.66u l=0.28u
X5 CLK_div_3_mag_0.Q0 CLK_div_3_mag_0.JK_FF_mag_1.K.t2 VDD.t129 VDD.t128 pfet_03v3 ad=0.208p pd=1.32u as=0.352p ps=2.48u w=0.8u l=0.28u
X6 CLK_div_3_mag_1.JK_FF_mag_1.K CLK_div_3_mag_1.Q0.t3 VDD.t142 VDD.t141 pfet_03v3 ad=0.208p pd=1.32u as=0.352p ps=2.48u w=0.8u l=0.28u
X7 a_11337_10895# CLK_div_3_mag_1.JK_FF_mag_0.nand3_mag_1.IN1 CLK_div_3_mag_1.JK_FF_mag_0.nand3_mag_1.OUT VSS.t228 nfet_03v3 ad=0.172p pd=1.18u as=0.29p ps=2.2u w=0.66u l=0.28u
X8 VDD CLK_div_3_mag_1.Q1.t3 CLK_div_3_mag_1.JK_FF_mag_1.nand3_mag_2.OUT VDD.t285 pfet_03v3 ad=0.208p pd=1.32u as=0.352p ps=2.48u w=0.8u l=0.28u
X9 a_9951_11931# CLK_DIV_11_mag_new_0.JK_FF_mag_1.nand3_mag_1.OUT VSS.t190 VSS.t189 nfet_03v3 ad=0.114p pd=0.96u as=0.194p ps=1.76u w=0.44u l=0.28u
X10 CLK_div_3_mag_1.JK_FF_mag_0.nand2_mag_1.IN2 CLK_div_3_mag_1.JK_FF_mag_0.nand2_mag_3.IN1 VDD.t39 VDD.t38 pfet_03v3 ad=0.208p pd=1.32u as=0.352p ps=2.48u w=0.8u l=0.28u
X11 CLK_DIV_11_mag_new_0.JK_FF_mag_2.nand3_mag_1.OUT CLK_DIV_11_mag_new_0.JK_FF_mag_2.nand3_mag_1.IN1 VDD.t32 VDD.t31 pfet_03v3 ad=0.352p pd=2.48u as=0.208p ps=1.32u w=0.8u l=0.28u
X12 a_4002_14308# CLK_DIV_11_mag_new_0.Q0 VSS.t148 VSS.t84 nfet_03v3 ad=0.114p pd=0.96u as=0.194p ps=1.76u w=0.44u l=0.28u
X13 CLK_DIV_11_mag_new_0.or_2_mag_3.IN2 CLK_DIV_11_mag_new_0.JK_FF_mag_0.nand2_mag_4.IN2 VDD.t183 VDD.t182 pfet_03v3 ad=0.208p pd=1.32u as=0.352p ps=2.48u w=0.8u l=0.28u
X14 a_3556_12901# CLK_DIV_11_mag_new_0.or_2_mag_0.IN2 VDD.t195 VDD.t194 pfet_03v3 ad=0.416p pd=2.12u as=0.704p ps=4.08u w=1.6u l=0.28u
X15 VDD CLK_div_3_mag_1.JK_FF_mag_1.QB CLK_div_3_mag_1.JK_FF_mag_1.nand3_mag_0.OUT VDD.t104 pfet_03v3 ad=0.208p pd=1.32u as=0.352p ps=2.48u w=0.8u l=0.28u
X16 VDD CLK_div_3_mag_1.or_2_mag_0.GF_INV_MAG_1.IN CLK_div_3_mag_0.CLK.t0 VDD.t72 pfet_03v3 ad=0.352p pd=2.48u as=0.352p ps=2.48u w=0.8u l=0.28u
X17 CLK_DIV_11_mag_new_0.or_2_mag_1.GF_INV_MAG_1.IN CLK_DIV_11_mag_new_0.or_2_mag_1.IN1 a_3994_15139# VDD.t384 pfet_03v3 ad=0.704p pd=4.08u as=0.416p ps=2.12u w=1.6u l=0.28u
X18 a_2597_12515# CLK_DIV_11_mag_new_0.Q1 VSS.t89 VSS.t88 nfet_03v3 ad=0.114p pd=0.96u as=0.194p ps=1.76u w=0.44u l=0.28u
X19 VDD CLK_div_3_mag_1.JK_FF_mag_0.nand3_mag_0.OUT CLK_div_3_mag_1.JK_FF_mag_0.nand3_mag_1.IN1 VDD.t196 pfet_03v3 ad=0.352p pd=2.48u as=0.208p ps=1.32u w=0.8u l=0.28u
X20 VDD CLK_div_3_mag_1.JK_FF_mag_1.nand3_mag_1.OUT CLK_div_3_mag_1.JK_FF_mag_1.nand2_mag_4.IN2 VDD.t79 pfet_03v3 ad=0.352p pd=2.48u as=0.208p ps=1.32u w=0.8u l=0.28u
X21 CLK_DIV_11_mag_new_0.or_2_mag_0.IN2 CLK_DIV_11_mag_new_0.nand3_mag_0.OUT VSS.t192 VSS.t191 nfet_03v3 ad=0.152p pd=1.64u as=0.152p ps=1.64u w=0.22u l=0.28u
X22 VDD CLK_div_3_mag_1.JK_FF_mag_1.K.t2 CLK_div_3_mag_1.JK_FF_mag_0.nand3_mag_0.OUT VDD.t378 pfet_03v3 ad=0.208p pd=1.32u as=0.352p ps=2.48u w=0.8u l=0.28u
X23 CLK_DIV_11_mag_new_0.GF_INV_MAG_1.OUT CLK_DIV_11_mag_new_0.nand3_mag_1.OUT VDD.t500 VDD.t499 pfet_03v3 ad=0.352p pd=2.48u as=0.352p ps=2.48u w=0.8u l=0.28u
X24 a_10363_9798# CLK_div_3_mag_1.JK_FF_mag_1.K.t3 CLK_div_3_mag_1.Q0.t1 VSS.t263 nfet_03v3 ad=0.114p pd=0.96u as=0.194p ps=1.76u w=0.44u l=0.28u
X25 CLK_DIV_11_mag_new_0.nor_3_mag_0.OUT CLK_DIV_11_mag_new_0.nor_3_mag_0.IN3 VSS.t285 VSS.t284 nfet_03v3 ad=86.8f pd=0.92u as=0.152p ps=1.64u w=0.22u l=0.28u
X26 CLK_DIV_11_mag_new_0.JK_FF_mag_2.nand3_mag_1.IN1 CLK_DIV_11_mag_new_0.JK_FF_mag_2.nand3_mag_1.OUT a_12347_13030# VSS.t187 nfet_03v3 ad=0.194p pd=1.76u as=0.114p ps=0.96u w=0.44u l=0.28u
X27 CLK_DIV_11_mag_new_0.JK_FF_mag_3.nand3_mag_1.OUT CLK_DIV_11_mag_new_0.JK_FF_mag_3.nand3_mag_1.IN1 VDD.t264 VDD.t263 pfet_03v3 ad=0.352p pd=2.48u as=0.208p ps=1.32u w=0.8u l=0.28u
X28 a_7226_13030# CLK_DIV_11_mag_new_0.JK_FF_mag_0.nand2_mag_1.IN2 VSS.t230 VSS.t229 nfet_03v3 ad=0.114p pd=0.96u as=0.194p ps=1.76u w=0.44u l=0.28u
X29 VSS CLK_div_3_mag_1.Q1.t4 a_12215_9798# VSS.t195 nfet_03v3 ad=0.29p pd=2.2u as=0.172p ps=1.18u w=0.66u l=0.28u
X30 VSS CLK.t0 a_11779_8699# VSS.t28 nfet_03v3 ad=0.194p pd=1.76u as=0.114p ps=0.96u w=0.44u l=0.28u
X31 VSS CLK_div_3_mag_1.JK_FF_mag_0.nand2_mag_4.IN2 a_10209_10895# VSS.t155 nfet_03v3 ad=0.194p pd=1.76u as=0.114p ps=0.96u w=0.44u l=0.28u
X32 CLK_DIV_11_mag_new_0.Q1 CLK_DIV_11_mag_new_0.or_2_mag_3.IN1.t3 a_13475_13030# VSS.t253 nfet_03v3 ad=0.194p pd=1.76u as=0.114p ps=0.96u w=0.44u l=0.28u
X33 VDD CLK_div_3_mag_0.Q0.t4 CLK_div_3_mag_0.JK_FF_mag_0.nand3_mag_2.OUT VDD.t312 pfet_03v3 ad=0.208p pd=1.32u as=0.352p ps=2.48u w=0.8u l=0.28u
X34 VDD CLK.t1 CLK_div_3_mag_1.JK_FF_mag_0.nand2_mag_3.IN1 VDD.t40 pfet_03v3 ad=0.352p pd=2.48u as=0.352p ps=2.48u w=0.8u l=0.28u
X35 VDD CLK_div_3_mag_1.JK_FF_mag_0.nand3_mag_1.IN1 CLK_div_3_mag_1.JK_FF_mag_0.nand2_mag_1.IN2 VDD.t332 pfet_03v3 ad=0.352p pd=2.48u as=0.208p ps=1.32u w=0.8u l=0.28u
X36 CLK_div_3_mag_1.JK_FF_mag_0.nand3_mag_1.IN1 CLK_div_3_mag_1.JK_FF_mag_0.nand3_mag_1.OUT VDD.t296 VDD.t295 pfet_03v3 ad=0.208p pd=1.32u as=0.352p ps=2.48u w=0.8u l=0.28u
X37 CLK_DIV_11_mag_new_0.JK_FF_mag_1.nand3_mag_2.OUT CLK_DIV_11_mag_new_0.Q2 a_8663_11887# VSS.t279 nfet_03v3 ad=0.29p pd=2.2u as=0.172p ps=1.18u w=0.66u l=0.28u
X38 CLK_DIV_11_mag_new_0.Q1 CLK_DIV_11_mag_new_0.JK_FF_mag_2.nand2_mag_1.IN2 VDD.t471 VDD.t470 pfet_03v3 ad=0.208p pd=1.32u as=0.352p ps=2.48u w=0.8u l=0.28u
X39 CLK_div_3_mag_0.JK_FF_mag_1.QB CLK_div_3_mag_0.Q1.t3 VDD.t137 VDD.t136 pfet_03v3 ad=0.208p pd=1.32u as=0.352p ps=2.48u w=0.8u l=0.28u
X40 a_5128_10895# RST.t0 a_4968_10895# VSS.t257 nfet_03v3 ad=0.172p pd=1.18u as=0.172p ps=1.18u w=0.66u l=0.28u
X41 a_6816_11933# CLK_DIV_11_mag_new_0.JK_FF_mag_0.nand3_mag_1.OUT VSS.t118 VSS.t117 nfet_03v3 ad=0.114p pd=0.96u as=0.194p ps=1.76u w=0.44u l=0.28u
X42 CLK_DIV_11_mag_new_0.JK_FF_mag_3.nand3_mag_0.OUT CLK_DIV_11_mag_new_0.JK_FF_mag_3.K VDD.t494 VDD.t493 pfet_03v3 ad=0.208p pd=1.32u as=0.352p ps=2.48u w=0.8u l=0.28u
X43 CLK_DIV_11_mag_new_0.JK_FF_mag_0.nand3_mag_1.IN1 CLK_DIV_11_mag_new_0.JK_FF_mag_0.nand3_mag_1.OUT a_6098_13030# VSS.t116 nfet_03v3 ad=0.194p pd=1.76u as=0.114p ps=0.96u w=0.44u l=0.28u
X44 VSS CLK_div_3_mag_1.or_2_mag_0.GF_INV_MAG_1.IN CLK_div_3_mag_0.CLK.t1 VSS.t51 nfet_03v3 ad=0.152p pd=1.64u as=0.152p ps=1.64u w=0.22u l=0.28u
X45 VDD CLK_div_3_mag_0.JK_FF_mag_1.nand3_mag_1.IN1 CLK_div_3_mag_0.JK_FF_mag_1.nand3_mag_1.OUT VDD.t53 pfet_03v3 ad=0.208p pd=1.32u as=0.352p ps=2.48u w=0.8u l=0.28u
X46 CLK_div_3_mag_1.JK_FF_mag_0.nand3_mag_0.OUT CLK.t2 VDD.t44 VDD.t43 pfet_03v3 ad=0.208p pd=1.32u as=0.208p ps=1.32u w=0.8u l=0.28u
X47 a_11779_8699# CLK_div_3_mag_1.Q1.t5 CLK_div_3_mag_1.and2_mag_0.GF_INV_MAG_0.IN VSS.t28 nfet_03v3 ad=0.114p pd=0.96u as=0.194p ps=1.76u w=0.44u l=0.28u
X48 a_15500_11885# CLK_DIV_11_mag_new_0.JK_FF_mag_3.nand3_mag_2.OUT VSS.t72 VSS.t71 nfet_03v3 ad=0.172p pd=1.18u as=0.29p ps=2.2u w=0.66u l=0.28u
X49 CLK_DIV_11_mag_new_0.nor_3_mag_0.OUT CLK_DIV_11_mag_new_0.Q3 a_13858_15251# VDD.t309 pfet_03v3 ad=1.06p pd=5.68u as=0.624p ps=2.92u w=2.4u l=0.28u
X50 VDD CLK.t3 CLK_div_3_mag_1.and2_mag_0.GF_INV_MAG_0.IN VDD.t45 pfet_03v3 ad=0.352p pd=2.48u as=0.208p ps=1.32u w=0.8u l=0.28u
X51 CLK_DIV_11_mag_new_0.JK_FF_mag_2.nand3_mag_2.OUT CLK_DIV_11_mag_new_0.Q1 a_11777_11889# VSS.t87 nfet_03v3 ad=0.29p pd=2.2u as=0.172p ps=1.18u w=0.66u l=0.28u
X52 CLK_DIV_11_mag_new_0.nand3_mag_1.OUT CLK_DIV_11_mag_new_0.and2_mag_3.IN1 VDD.t251 VDD.t250 pfet_03v3 ad=0.208p pd=1.32u as=0.352p ps=2.48u w=0.8u l=0.28u
X53 CLK_DIV_11_mag_new_0.JK_FF_mag_0.K CLK_DIV_11_mag_new_0.or_2_mag_0.GF_INV_MAG_1.IN VSS.t1 VSS.t0 nfet_03v3 ad=0.152p pd=1.64u as=0.152p ps=1.64u w=0.22u l=0.28u
X54 CLK_DIV_11_mag_new_0.GF_INV_MAG_1.OUT CLK_DIV_11_mag_new_0.nand3_mag_1.OUT VSS.t338 VSS.t337 nfet_03v3 ad=0.152p pd=1.64u as=0.152p ps=1.64u w=0.22u l=0.28u
X55 CLK_DIV_11_mag_new_0.JK_FF_mag_1.nand3_mag_1.OUT CLK_DIV_11_mag_new_0.JK_FF_mag_1.nand3_mag_1.IN1 VDD.t260 VDD.t259 pfet_03v3 ad=0.352p pd=2.48u as=0.208p ps=1.32u w=0.8u l=0.28u
X56 a_7421_10895# CLK_div_3_mag_0.JK_FF_mag_1.nand2_mag_3.IN1 CLK_div_3_mag_0.JK_FF_mag_1.nand2_mag_4.IN2 VSS.t243 nfet_03v3 ad=0.114p pd=0.96u as=0.194p ps=1.76u w=0.44u l=0.28u
X57 CLK_DIV_11_mag_new_0.JK_FF_mag_3.K CLK_DIV_11_mag_new_0.or_2_mag_3.GF_INV_MAG_1.IN VSS.t165 VSS.t164 nfet_03v3 ad=0.152p pd=1.64u as=0.152p ps=1.64u w=0.22u l=0.28u
X58 CLK_DIV_11_mag_new_0.JK_FF_mag_2.K CLK_DIV_11_mag_new_0.or_2_mag_1.GF_INV_MAG_1.IN VSS.t99 VSS.t98 nfet_03v3 ad=0.152p pd=1.64u as=0.152p ps=1.64u w=0.22u l=0.28u
X59 CLK_DIV_11_mag_new_0.JK_FF_mag_2.nand3_mag_2.OUT CLK_DIV_11_mag_new_0.Q1 VDD.t124 VDD.t123 pfet_03v3 ad=0.352p pd=2.48u as=0.208p ps=1.32u w=0.8u l=0.28u
X60 CLK_DIV_11_mag_new_0.or_2_mag_3.GF_INV_MAG_1.IN CLK_DIV_11_mag_new_0.or_2_mag_3.IN2 VSS.t242 VSS.t241 nfet_03v3 ad=86.8f pd=0.92u as=0.152p ps=1.64u w=0.22u l=0.28u
X61 CLK_DIV_11_mag_new_0.JK_FF_mag_1.QB CLK_DIV_11_mag_new_0.Q2 a_10515_11931# VSS.t278 nfet_03v3 ad=0.194p pd=1.76u as=0.114p ps=0.96u w=0.44u l=0.28u
X62 CLK_DIV_11_mag_new_0.nand3_mag_0.OUT CLK_DIV_11_mag_new_0.Q1 VDD.t122 VDD.t110 pfet_03v3 ad=0.208p pd=1.32u as=0.352p ps=2.48u w=0.8u l=0.28u
X63 CLK_div_3_mag_1.JK_FF_mag_0.nand3_mag_2.OUT CLK.t4 VDD.t49 VDD.t48 pfet_03v3 ad=0.208p pd=1.32u as=0.208p ps=1.32u w=0.8u l=0.28u
X64 CLK_DIV_11_mag_new_0.JK_FF_mag_0.nand2_mag_3.IN1 CLK_div_3_mag_0.Vdiv3.t2 VDD.t414 VDD.t413 pfet_03v3 ad=0.352p pd=2.48u as=0.352p ps=2.48u w=0.8u l=0.28u
X65 CLK_div_3_mag_1.and2_mag_0.GF_INV_MAG_0.IN CLK_div_3_mag_1.Q1.t6 VDD.t289 VDD.t288 pfet_03v3 ad=0.208p pd=1.32u as=0.352p ps=2.48u w=0.8u l=0.28u
X66 CLK_DIV_11_mag_new_0.JK_FF_mag_0.nand3_mag_2.OUT CLK_DIV_11_mag_new_0.Q3 a_5528_11889# VSS.t212 nfet_03v3 ad=0.29p pd=2.2u as=0.172p ps=1.18u w=0.66u l=0.28u
X67 a_10096_15189# CLK_DIV_11_mag_new_0.and2_mag_3.IN1 VSS.t168 VSS.t167 nfet_03v3 ad=0.172p pd=1.18u as=0.29p ps=2.2u w=0.66u l=0.28u
X68 CLK_DIV_11_mag_new_0.JK_FF_mag_1.nand3_mag_0.OUT CLK_DIV_11_mag_new_0.JK_FF_mag_1.K.t2 VDD.t244 VDD.t243 pfet_03v3 ad=0.208p pd=1.32u as=0.352p ps=2.48u w=0.8u l=0.28u
X69 VDD CLK_div_3_mag_1.JK_FF_mag_1.nand2_mag_4.IN2 CLK_div_3_mag_1.JK_FF_mag_1.QB VDD.t8 pfet_03v3 ad=0.352p pd=2.48u as=0.208p ps=1.32u w=0.8u l=0.28u
X70 VDD CLK_div_3_mag_1.or_2_mag_0.IN2 a_10806_8231# VDD.t184 pfet_03v3 ad=0.704p pd=4.08u as=0.416p ps=2.12u w=1.6u l=0.28u
X71 CLK_div_3_mag_1.JK_FF_mag_1.nand3_mag_1.OUT RST.t1 VDD.t371 VDD.t370 pfet_03v3 ad=0.208p pd=1.32u as=0.208p ps=1.32u w=0.8u l=0.28u
X72 a_9227_11887# CLK_DIV_11_mag_new_0.JK_FF_mag_1.nand3_mag_2.OUT VSS.t47 VSS.t46 nfet_03v3 ad=0.172p pd=1.18u as=0.29p ps=2.2u w=0.66u l=0.28u
X73 CLK_DIV_11_mag_new_0.JK_FF_mag_0.nand3_mag_2.OUT CLK_DIV_11_mag_new_0.Q3 VDD.t308 VDD.t307 pfet_03v3 ad=0.352p pd=2.48u as=0.208p ps=1.32u w=0.8u l=0.28u
X74 a_7011_9798# CLK_div_3_mag_0.JK_FF_mag_1.QB CLK_div_3_mag_0.Q1.t2 VSS.t2 nfet_03v3 ad=0.114p pd=0.96u as=0.194p ps=1.76u w=0.44u l=0.28u
X75 CLK_DIV_11_mag_new_0.and2_mag_3.IN1 CLK_DIV_11_mag_new_0.Buffer_delayed_mag_0.Inverter_delayed_mag_0.IN VSS.t326 VSS.t325 nfet_03v3 ad=0.152p pd=1.64u as=0.152p ps=1.64u w=0.22u l=1u
X76 a_13629_11933# CLK_DIV_11_mag_new_0.JK_FF_mag_2.nand2_mag_4.IN2 VSS.t200 VSS.t199 nfet_03v3 ad=0.114p pd=0.96u as=0.194p ps=1.76u w=0.44u l=0.28u
X77 VSS CLK_div_3_mag_0.JK_FF_mag_1.K.t3 a_8863_9798# VSS.t11 nfet_03v3 ad=0.29p pd=2.2u as=0.172p ps=1.18u w=0.66u l=0.28u
X78 CLK_DIV_11_mag_new_0.JK_FF_mag_2.nand2_mag_1.IN2 CLK_DIV_11_mag_new_0.JK_FF_mag_2.nand2_mag_3.IN1 a_12911_13030# VSS.t270 nfet_03v3 ad=0.194p pd=1.76u as=0.114p ps=0.96u w=0.44u l=0.28u
X79 VSS VDD.t507 a_12221_10895# VSS.t111 nfet_03v3 ad=0.29p pd=2.2u as=0.172p ps=1.18u w=0.66u l=0.28u
X80 VDD CLK_DIV_11_mag_new_0.JK_FF_mag_3.nand2_mag_3.IN1 CLK_DIV_11_mag_new_0.JK_FF_mag_3.nand2_mag_4.IN2 VDD.t475 pfet_03v3 ad=0.352p pd=2.48u as=0.208p ps=1.32u w=0.8u l=0.28u
X81 CLK_DIV_11_mag_new_0.or_2_mag_0.GF_INV_MAG_1.IN CLK_DIV_11_mag_new_0.or_2_mag_0.IN2 VSS.t133 VSS.t132 nfet_03v3 ad=86.8f pd=0.92u as=0.152p ps=1.64u w=0.22u l=0.28u
X82 VSS CLK_div_3_mag_0.JK_FF_mag_1.nand3_mag_1.IN1 a_7575_9798# VSS.t2 nfet_03v3 ad=0.194p pd=1.76u as=0.114p ps=0.96u w=0.44u l=0.28u
X83 VSS CLK_DIV_11_mag_new_0.or_2_mag_3.IN1.t4 CLK_DIV_11_mag_new_0.or_2_mag_3.GF_INV_MAG_1.IN VSS.t254 nfet_03v3 ad=0.152p pd=1.64u as=86.8f ps=0.92u w=0.22u l=0.28u
X84 a_2597_14017# CLK_DIV_11_mag_new_0.Q1 VSS.t86 VSS.t85 nfet_03v3 ad=0.172p pd=1.18u as=0.29p ps=2.2u w=0.66u l=0.28u
X85 VDD CLK_div_3_mag_0.JK_FF_mag_0.nand2_mag_4.IN2 CLK_div_3_mag_0.JK_FF_mag_1.K.t0 VDD.t16 pfet_03v3 ad=0.352p pd=2.48u as=0.208p ps=1.32u w=0.8u l=0.28u
X86 VDD CLK_DIV_11_mag_new_0.JK_FF_mag_3.nand3_mag_1.OUT CLK_DIV_11_mag_new_0.JK_FF_mag_3.nand3_mag_1.IN1 VDD.t189 pfet_03v3 ad=0.352p pd=2.48u as=0.208p ps=1.32u w=0.8u l=0.28u
X87 a_5534_12986# CLK_div_3_mag_0.Vdiv3.t3 a_5374_12986# VSS.t301 nfet_03v3 ad=0.172p pd=1.18u as=0.172p ps=1.18u w=0.66u l=0.28u
X88 VSS CLK_DIV_11_mag_new_0.and2_mag_3.OUT CLK_DIV_11_mag_new_0.nor_3_mag_0.OUT VSS.t304 nfet_03v3 ad=86.8f pd=0.92u as=86.8f ps=0.92u w=0.22u l=0.28u
X89 CLK_DIV_11_mag_new_0.JK_FF_mag_3.nand2_mag_1.IN2 CLK_DIV_11_mag_new_0.JK_FF_mag_3.nand2_mag_3.IN1 a_16070_13026# VSS.t321 nfet_03v3 ad=0.194p pd=1.76u as=0.114p ps=0.96u w=0.44u l=0.28u
X90 VSS CLK_div_3_mag_1.JK_FF_mag_1.nand3_mag_2.OUT a_14514_10895# VSS.t48 nfet_03v3 ad=0.29p pd=2.2u as=0.172p ps=1.18u w=0.66u l=0.28u
X91 VDD CLK_DIV_11_mag_new_0.Q3 CLK_DIV_11_mag_new_0.and2_mag_2.GF_INV_MAG_0.IN VDD.t304 pfet_03v3 ad=0.352p pd=2.48u as=0.208p ps=1.32u w=0.8u l=0.28u
X92 CLK_div_3_mag_0.JK_FF_mag_1.nand3_mag_2.OUT CLK_div_3_mag_0.CLK.t2 VDD.t12 VDD.t11 pfet_03v3 ad=0.208p pd=1.32u as=0.208p ps=1.32u w=0.8u l=0.28u
X93 VDD CLK_DIV_11_mag_new_0.JK_FF_mag_3.QB CLK_DIV_11_mag_new_0.Q0 VDD.t176 pfet_03v3 ad=0.352p pd=2.48u as=0.208p ps=1.32u w=0.8u l=0.28u
X94 a_7380_11933# CLK_DIV_11_mag_new_0.JK_FF_mag_0.nand2_mag_4.IN2 VSS.t125 VSS.t124 nfet_03v3 ad=0.114p pd=0.96u as=0.194p ps=1.76u w=0.44u l=0.28u
X95 a_8863_9798# CLK_div_3_mag_0.CLK.t3 a_8703_9798# VSS.t11 nfet_03v3 ad=0.172p pd=1.18u as=0.172p ps=1.18u w=0.66u l=0.28u
X96 VSS CLK_div_3_mag_0.JK_FF_mag_1.nand2_mag_1.IN2 a_7011_9798# VSS.t2 nfet_03v3 ad=0.194p pd=1.76u as=0.114p ps=0.96u w=0.44u l=0.28u
X97 VDD CLK_div_3_mag_0.Vdiv3.t4 CLK_DIV_11_mag_new_0.JK_FF_mag_2.nand3_mag_0.OUT VDD.t442 pfet_03v3 ad=0.208p pd=1.32u as=0.208p ps=1.32u w=0.8u l=0.28u
X98 a_7575_9798# CLK_div_3_mag_0.JK_FF_mag_1.nand2_mag_3.IN1 CLK_div_3_mag_0.JK_FF_mag_1.nand2_mag_1.IN2 VSS.t2 nfet_03v3 ad=0.114p pd=0.96u as=0.194p ps=1.76u w=0.44u l=0.28u
X99 CLK_DIV_11_mag_new_0.JK_FF_mag_3.nand3_mag_0.OUT CLK_DIV_11_mag_new_0.JK_FF_mag_3.QB VDD.t175 VDD.t174 pfet_03v3 ad=0.352p pd=2.48u as=0.208p ps=1.32u w=0.8u l=0.28u
X100 VDD CLK_div_3_mag_0.JK_FF_mag_1.nand3_mag_2.OUT CLK_div_3_mag_0.JK_FF_mag_1.nand3_mag_1.OUT VDD.t222 pfet_03v3 ad=0.352p pd=2.48u as=0.208p ps=1.32u w=0.8u l=0.28u
X101 a_8669_12984# CLK_div_3_mag_0.Vdiv3.t5 a_8509_12984# VSS.t302 nfet_03v3 ad=0.172p pd=1.18u as=0.172p ps=1.18u w=0.66u l=0.28u
X102 a_12501_11889# RST.t2 a_12341_11889# VSS.t258 nfet_03v3 ad=0.172p pd=1.18u as=0.172p ps=1.18u w=0.66u l=0.28u
X103 CLK_DIV_11_mag_new_0.and2_mag_3.OUT CLK_DIV_11_mag_new_0.and2_mag_3.GF_INV_MAG_0.IN VDD.t193 VDD.t192 pfet_03v3 ad=0.352p pd=2.48u as=0.352p ps=2.48u w=0.8u l=0.28u
X104 a_14508_9798# CLK_div_3_mag_1.JK_FF_mag_1.nand3_mag_1.OUT CLK_div_3_mag_1.JK_FF_mag_1.nand3_mag_1.IN1 VSS.t59 nfet_03v3 ad=0.114p pd=0.96u as=0.194p ps=1.76u w=0.44u l=0.28u
X105 VSS CLK_DIV_11_mag_new_0.or_2_mag_0.IN1 CLK_DIV_11_mag_new_0.or_2_mag_0.GF_INV_MAG_1.IN VSS.t316 nfet_03v3 ad=0.152p pd=1.64u as=86.8f ps=0.92u w=0.22u l=0.28u
X106 VSS CLK_div_3_mag_1.or_2_mag_0.IN2 CLK_div_3_mag_1.or_2_mag_0.GF_INV_MAG_1.IN VSS.t96 nfet_03v3 ad=0.152p pd=1.64u as=86.8f ps=0.92u w=0.22u l=0.28u
X107 a_10361_13028# CLK_DIV_11_mag_new_0.JK_FF_mag_1.nand2_mag_1.IN2 VSS.t268 VSS.t267 nfet_03v3 ad=0.114p pd=0.96u as=0.194p ps=1.76u w=0.44u l=0.28u
X108 CLK_DIV_11_mag_new_0.or_2_mag_0.IN1 CLK_DIV_11_mag_new_0.and2_mag_0.GF_INV_MAG_0.IN VSS.t184 VSS.t183 nfet_03v3 ad=0.152p pd=1.64u as=0.152p ps=1.64u w=0.22u l=0.28u
X109 VDD RST.t3 CLK_DIV_11_mag_new_0.JK_FF_mag_2.nand3_mag_1.OUT VDD.t372 pfet_03v3 ad=0.208p pd=1.32u as=0.208p ps=1.32u w=0.8u l=0.28u
X110 VDD CLK_div_3_mag_0.JK_FF_mag_1.nand3_mag_0.OUT CLK_div_3_mag_0.JK_FF_mag_1.nand3_mag_1.IN1 VDD.t125 pfet_03v3 ad=0.352p pd=2.48u as=0.208p ps=1.32u w=0.8u l=0.28u
X111 a_15232_9798# CLK.t5 a_15072_9798# VSS.t37 nfet_03v3 ad=0.172p pd=1.18u as=0.172p ps=1.18u w=0.66u l=0.28u
X112 CLK_DIV_11_mag_new_0.JK_FF_mag_1.K CLK_DIV_11_mag_new_0.and2_mag_1.GF_INV_MAG_0.IN VSS.t249 VSS.t248 nfet_03v3 ad=0.152p pd=1.64u as=0.152p ps=1.64u w=0.22u l=0.28u
X113 VDD CLK_div_3_mag_0.JK_FF_mag_1.QB CLK_div_3_mag_0.JK_FF_mag_1.nand3_mag_0.OUT VDD.t424 pfet_03v3 ad=0.208p pd=1.32u as=0.352p ps=2.48u w=0.8u l=0.28u
X114 VDD CLK_div_3_mag_0.or_2_mag_0.GF_INV_MAG_1.IN CLK_div_3_mag_0.Vdiv3.t0 VDD.t341 pfet_03v3 ad=0.352p pd=2.48u as=0.352p ps=2.48u w=0.8u l=0.28u
X115 CLK_div_3_mag_1.JK_FF_mag_0.nand2_mag_4.IN2 CLK_div_3_mag_1.JK_FF_mag_0.nand2_mag_3.IN1 VDD.t37 VDD.t36 pfet_03v3 ad=0.208p pd=1.32u as=0.352p ps=2.48u w=0.8u l=0.28u
X116 CLK_DIV_11_mag_new_0.JK_FF_mag_3.nand3_mag_2.OUT CLK_DIV_11_mag_new_0.JK_FF_mag_3.K VDD.t492 VDD.t491 pfet_03v3 ad=0.208p pd=1.32u as=0.352p ps=2.48u w=0.8u l=0.28u
X117 CLK_DIV_11_mag_new_0.nor_3_mag_0.OUT CLK_DIV_11_mag_new_0.Q3 VSS.t211 VSS.t210 nfet_03v3 ad=0.152p pd=1.64u as=86.8f ps=0.92u w=0.22u l=0.28u
X118 CLK_DIV_11_mag_new_0.JK_FF_mag_1.nand2_mag_3.IN1 CLK_div_3_mag_0.Vdiv3.t6 VSS.t300 VSS.t299 nfet_03v3 ad=0.152p pd=1.64u as=0.152p ps=1.64u w=0.22u l=0.28u
X119 a_12347_13030# CLK_DIV_11_mag_new_0.JK_FF_mag_2.nand3_mag_0.OUT VSS.t55 VSS.t54 nfet_03v3 ad=0.114p pd=0.96u as=0.194p ps=1.76u w=0.44u l=0.28u
X120 a_3994_9798# CLK_div_3_mag_0.JK_FF_mag_1.K.t4 CLK_div_3_mag_0.Q0.t2 VSS.t2 nfet_03v3 ad=0.114p pd=0.96u as=0.194p ps=1.76u w=0.44u l=0.28u
X121 VDD VDD.t163 CLK_div_3_mag_1.JK_FF_mag_1.nand3_mag_2.OUT VDD.t164 pfet_03v3 ad=0.352p pd=2.48u as=0.208p ps=1.32u w=0.8u l=0.28u
X122 a_10209_10895# CLK_div_3_mag_1.Q0.t4 CLK_div_3_mag_1.JK_FF_mag_1.K VSS.t95 nfet_03v3 ad=0.114p pd=0.96u as=0.194p ps=1.76u w=0.44u l=0.28u
X123 a_15078_10895# CLK_div_3_mag_1.Q1.t7 CLK_div_3_mag_1.JK_FF_mag_1.nand3_mag_2.OUT VSS.t198 nfet_03v3 ad=0.172p pd=1.18u as=0.29p ps=2.2u w=0.66u l=0.28u
X124 a_10927_9798# CLK_div_3_mag_1.JK_FF_mag_0.nand2_mag_3.IN1 CLK_div_3_mag_1.JK_FF_mag_0.nand2_mag_1.IN2 VSS.t27 nfet_03v3 ad=0.114p pd=0.96u as=0.194p ps=1.76u w=0.44u l=0.28u
X125 VDD CLK_div_3_mag_0.Q1.t4 CLK_div_3_mag_0.JK_FF_mag_0.nand3_mag_0.OUT VDD.t138 pfet_03v3 ad=0.352p pd=2.48u as=0.208p ps=1.32u w=0.8u l=0.28u
X126 a_15072_9798# CLK_div_3_mag_1.JK_FF_mag_1.QB CLK_div_3_mag_1.JK_FF_mag_1.nand3_mag_0.OUT VSS.t76 nfet_03v3 ad=0.172p pd=1.18u as=0.29p ps=2.2u w=0.66u l=0.28u
X127 VDD CLK_div_3_mag_0.JK_FF_mag_0.nand3_mag_1.IN1 CLK_div_3_mag_0.JK_FF_mag_0.nand2_mag_1.IN2 VDD.t481 pfet_03v3 ad=0.352p pd=2.48u as=0.208p ps=1.32u w=0.8u l=0.28u
X128 VSS CLK_div_3_mag_1.JK_FF_mag_0.nand3_mag_0.OUT a_11491_9798# VSS.t134 nfet_03v3 ad=0.194p pd=1.76u as=0.114p ps=0.96u w=0.44u l=0.28u
X129 VSS CLK_div_3_mag_1.JK_FF_mag_1.nand3_mag_1.OUT a_13790_10895# VSS.t56 nfet_03v3 ad=0.194p pd=1.76u as=0.114p ps=0.96u w=0.44u l=0.28u
X130 a_12055_9798# CLK_div_3_mag_1.JK_FF_mag_1.K.t4 CLK_div_3_mag_1.JK_FF_mag_0.nand3_mag_0.OUT VSS.t264 nfet_03v3 ad=0.172p pd=1.18u as=0.29p ps=2.2u w=0.66u l=0.28u
X131 a_6098_13030# CLK_DIV_11_mag_new_0.JK_FF_mag_0.nand3_mag_0.OUT VSS.t170 VSS.t169 nfet_03v3 ad=0.114p pd=0.96u as=0.194p ps=1.76u w=0.44u l=0.28u
X132 CLK_div_3_mag_1.or_2_mag_0.GF_INV_MAG_1.IN CLK_div_3_mag_1.Q0.t5 VSS.t97 VSS.t96 nfet_03v3 ad=86.8f pd=0.92u as=0.152p ps=1.64u w=0.22u l=0.28u
X133 VSS CLK_div_3_mag_0.or_2_mag_0.GF_INV_MAG_1.IN CLK_div_3_mag_0.Vdiv3.t1 VSS.t235 nfet_03v3 ad=0.152p pd=1.64u as=0.152p ps=1.64u w=0.22u l=0.28u
X134 VDD VDD.t159 CLK_div_3_mag_0.JK_FF_mag_0.nand3_mag_2.OUT VDD.t160 pfet_03v3 ad=0.352p pd=2.48u as=0.208p ps=1.32u w=0.8u l=0.28u
X135 VDD CLK_div_3_mag_0.JK_FF_mag_0.nand3_mag_1.OUT CLK_div_3_mag_0.JK_FF_mag_0.nand2_mag_4.IN2 VDD.t488 pfet_03v3 ad=0.352p pd=2.48u as=0.208p ps=1.32u w=0.8u l=0.28u
X136 CLK_DIV_11_mag_new_0.and2_mag_3.GF_INV_MAG_0.IN CLK_DIV_11_mag_new_0.and2_mag_3.IN1 a_10961_15230# VSS.t166 nfet_03v3 ad=0.194p pd=1.76u as=0.114p ps=0.96u w=0.44u l=0.28u
X137 VDD CLK_div_3_mag_0.JK_FF_mag_0.nand2_mag_1.IN2 CLK_div_3_mag_0.Q0.t0 VDD.t62 pfet_03v3 ad=0.352p pd=2.48u as=0.208p ps=1.32u w=0.8u l=0.28u
X138 a_5692_10895# CLK_div_3_mag_0.Q0.t5 CLK_div_3_mag_0.JK_FF_mag_0.nand3_mag_2.OUT VSS.t215 nfet_03v3 ad=0.172p pd=1.18u as=0.29p ps=2.2u w=0.66u l=0.28u
X139 VDD CLK_DIV_11_mag_new_0.or_2_mag_3.IN2 CLK_DIV_11_mag_new_0.Q3 VDD.t348 pfet_03v3 ad=0.352p pd=2.48u as=0.208p ps=1.32u w=0.8u l=0.28u
X140 VSS CLK_div_3_mag_1.JK_FF_mag_0.nand3_mag_1.IN1 a_10927_9798# VSS.t225 nfet_03v3 ad=0.194p pd=1.76u as=0.114p ps=0.96u w=0.44u l=0.28u
X141 CLK_div_3_mag_0.JK_FF_mag_0.nand2_mag_1.IN2 CLK_div_3_mag_0.JK_FF_mag_0.nand2_mag_3.IN1 VDD.t450 VDD.t449 pfet_03v3 ad=0.208p pd=1.32u as=0.352p ps=2.48u w=0.8u l=0.28u
X142 VSS CLK.t6 CLK_div_3_mag_1.JK_FF_mag_1.nand2_mag_3.IN1 VSS.t38 nfet_03v3 ad=0.152p pd=1.64u as=0.152p ps=1.64u w=0.22u l=0.28u
X143 a_11491_9798# CLK_div_3_mag_1.JK_FF_mag_0.nand3_mag_1.OUT CLK_div_3_mag_1.JK_FF_mag_0.nand3_mag_1.IN1 VSS.t204 nfet_03v3 ad=0.114p pd=0.96u as=0.194p ps=1.76u w=0.44u l=0.28u
X144 a_6857_10895# CLK_div_3_mag_0.Q1.t5 CLK_div_3_mag_0.JK_FF_mag_1.QB VSS.t94 nfet_03v3 ad=0.114p pd=0.96u as=0.194p ps=1.76u w=0.44u l=0.28u
X145 a_10515_11931# CLK_DIV_11_mag_new_0.JK_FF_mag_1.nand2_mag_4.IN2 VSS.t234 VSS.t233 nfet_03v3 ad=0.114p pd=0.96u as=0.194p ps=1.76u w=0.44u l=0.28u
X146 CLK_DIV_11_mag_new_0.JK_FF_mag_3.nand3_mag_1.OUT CLK_DIV_11_mag_new_0.JK_FF_mag_3.nand3_mag_1.IN1 a_15660_11885# VSS.t178 nfet_03v3 ad=0.29p pd=2.2u as=0.172p ps=1.18u w=0.66u l=0.28u
X147 VDD CLK_div_3_mag_0.JK_FF_mag_0.nand3_mag_0.OUT CLK_div_3_mag_0.JK_FF_mag_0.nand3_mag_1.IN1 VDD.t2 pfet_03v3 ad=0.352p pd=2.48u as=0.208p ps=1.32u w=0.8u l=0.28u
X148 a_7985_10895# CLK_div_3_mag_0.JK_FF_mag_1.nand3_mag_1.IN1 CLK_div_3_mag_0.JK_FF_mag_1.nand3_mag_1.OUT VSS.t31 nfet_03v3 ad=0.172p pd=1.18u as=0.29p ps=2.2u w=0.66u l=0.28u
X149 CLK_DIV_11_mag_new_0.JK_FF_mag_3.nand2_mag_4.IN2 CLK_DIV_11_mag_new_0.JK_FF_mag_3.nand2_mag_3.IN1 a_16224_11929# VSS.t73 nfet_03v3 ad=0.194p pd=1.76u as=0.114p ps=0.96u w=0.44u l=0.28u
X150 VDD CLK_div_3_mag_0.Vdiv3.t7 CLK_DIV_11_mag_new_0.JK_FF_mag_1.nand3_mag_2.OUT VDD.t437 pfet_03v3 ad=0.208p pd=1.32u as=0.208p ps=1.32u w=0.8u l=0.28u
X151 a_12215_9798# CLK.t7 a_12055_9798# VSS.t41 nfet_03v3 ad=0.172p pd=1.18u as=0.172p ps=1.18u w=0.66u l=0.28u
X152 CLK_DIV_11_mag_new_0.nand3_mag_1.OUT CLK_div_3_mag_0.Vdiv3.t8 VDD.t441 VDD.t440 pfet_03v3 ad=0.352p pd=2.48u as=0.208p ps=1.32u w=0.8u l=0.28u
X153 CLK_DIV_11_mag_new_0.Buffer_delayed_mag_0.Inverter_delayed_mag_0.IN CLK_DIV_11_mag_new_0.Q2 VSS.t277 VSS.t276 nfet_03v3 ad=0.152p pd=1.64u as=0.152p ps=1.64u w=0.22u l=1u
X154 VDD CLK_div_3_mag_0.and2_mag_0.GF_INV_MAG_0.IN CLK_div_3_mag_0.or_2_mag_0.IN2 VDD.t375 pfet_03v3 ad=0.352p pd=2.48u as=0.352p ps=2.48u w=0.8u l=0.28u
X155 VDD CLK_div_3_mag_1.JK_FF_mag_0.nand3_mag_2.OUT CLK_div_3_mag_1.JK_FF_mag_0.nand3_mag_1.OUT VDD.t5 pfet_03v3 ad=0.352p pd=2.48u as=0.208p ps=1.32u w=0.8u l=0.28u
X156 a_5528_11889# CLK_div_3_mag_0.Vdiv3.t9 a_5368_11889# VSS.t171 nfet_03v3 ad=0.172p pd=1.18u as=0.172p ps=1.18u w=0.66u l=0.28u
X157 CLK_DIV_11_mag_new_0.JK_FF_mag_2.nand2_mag_4.IN2 CLK_DIV_11_mag_new_0.JK_FF_mag_2.nand3_mag_1.OUT VDD.t275 VDD.t274 pfet_03v3 ad=0.208p pd=1.32u as=0.352p ps=2.48u w=0.8u l=0.28u
X158 CLK_DIV_11_mag_new_0.JK_FF_mag_3.QB CLK_DIV_11_mag_new_0.JK_FF_mag_3.nand2_mag_4.IN2 VDD.t101 VDD.t100 pfet_03v3 ad=0.208p pd=1.32u as=0.352p ps=2.48u w=0.8u l=0.28u
X159 VSS CLK_div_3_mag_0.CLK.t4 a_5410_8699# VSS.t12 nfet_03v3 ad=0.194p pd=1.76u as=0.114p ps=0.96u w=0.44u l=0.28u
X160 CLK_div_3_mag_1.JK_FF_mag_1.QB CLK_div_3_mag_1.Q1.t8 VDD.t325 VDD.t324 pfet_03v3 ad=0.208p pd=1.32u as=0.352p ps=2.48u w=0.8u l=0.28u
X161 CLK_DIV_11_mag_new_0.nor_3_mag_0.IN3 CLK_DIV_11_mag_new_0.Buffer_delayed_mag_1.Inverter_delayed_mag_0.IN VDD.t88 VDD.t87 pfet_03v3 ad=0.352p pd=2.48u as=0.352p ps=2.48u w=0.8u l=1u
X162 VDD CLK_div_3_mag_0.Vdiv3.t10 CLK_DIV_11_mag_new_0.JK_FF_mag_0.nand3_mag_2.OUT VDD.t254 pfet_03v3 ad=0.208p pd=1.32u as=0.208p ps=1.32u w=0.8u l=0.28u
X163 VDD CLK_div_3_mag_1.JK_FF_mag_1.nand3_mag_1.IN1 CLK_div_3_mag_1.JK_FF_mag_1.nand3_mag_1.OUT VDD.t92 pfet_03v3 ad=0.208p pd=1.32u as=0.352p ps=2.48u w=0.8u l=0.28u
X164 CLK_DIV_11_mag_new_0.nand3_mag_0.OUT CLK_DIV_11_mag_new_0.Q2 VDD.t408 VDD.t407 pfet_03v3 ad=0.352p pd=2.48u as=0.208p ps=1.32u w=0.8u l=0.28u
X165 a_14782_12982# CLK_DIV_11_mag_new_0.JK_FF_mag_3.K VSS.t333 VSS.t332 nfet_03v3 ad=0.172p pd=1.18u as=0.29p ps=2.2u w=0.66u l=0.28u
X166 CLK_DIV_11_mag_new_0.JK_FF_mag_3.nand3_mag_2.OUT CLK_DIV_11_mag_new_0.Q0 VDD.t221 VDD.t220 pfet_03v3 ad=0.352p pd=2.48u as=0.208p ps=1.32u w=0.8u l=0.28u
X167 a_12221_10895# CLK.t8 a_12061_10895# VSS.t42 nfet_03v3 ad=0.172p pd=1.18u as=0.172p ps=1.18u w=0.66u l=0.28u
X168 CLK_DIV_11_mag_new_0.JK_FF_mag_3.nand2_mag_4.IN2 CLK_DIV_11_mag_new_0.JK_FF_mag_3.nand3_mag_1.OUT VDD.t188 VDD.t187 pfet_03v3 ad=0.208p pd=1.32u as=0.352p ps=2.48u w=0.8u l=0.28u
X169 CLK_DIV_11_mag_new_0.nand3_mag_1.OUT CLK_div_3_mag_0.Vdiv3.t11 a_10256_15189# VSS.t172 nfet_03v3 ad=0.29p pd=2.2u as=0.172p ps=1.18u w=0.66u l=0.28u
X170 CLK_DIV_11_mag_new_0.JK_FF_mag_1.nand3_mag_0.OUT CLK_DIV_11_mag_new_0.JK_FF_mag_1.QB VDD.t431 VDD.t430 pfet_03v3 ad=0.352p pd=2.48u as=0.208p ps=1.32u w=0.8u l=0.28u
X171 CLK_DIV_11_mag_new_0.JK_FF_mag_1.nand3_mag_1.OUT CLK_DIV_11_mag_new_0.JK_FF_mag_1.nand3_mag_1.IN1 a_9387_11887# VSS.t175 nfet_03v3 ad=0.29p pd=2.2u as=0.172p ps=1.18u w=0.66u l=0.28u
X172 VSS CLK_div_3_mag_1.JK_FF_mag_1.nand2_mag_4.IN2 a_13226_10895# VSS.t8 nfet_03v3 ad=0.194p pd=1.76u as=0.114p ps=0.96u w=0.44u l=0.28u
X173 CLK_div_3_mag_0.JK_FF_mag_1.K CLK_div_3_mag_0.Q0.t6 VDD.t311 VDD.t310 pfet_03v3 ad=0.208p pd=1.32u as=0.352p ps=2.48u w=0.8u l=0.28u
X174 CLK_DIV_11_mag_new_0.JK_FF_mag_3.nand3_mag_1.IN1 CLK_DIV_11_mag_new_0.JK_FF_mag_3.nand3_mag_0.OUT VDD.t206 VDD.t205 pfet_03v3 ad=0.208p pd=1.32u as=0.352p ps=2.48u w=0.8u l=0.28u
X175 VDD CLK_div_3_mag_0.CLK.t5 CLK_div_3_mag_0.and2_mag_0.GF_INV_MAG_0.IN VDD.t13 pfet_03v3 ad=0.352p pd=2.48u as=0.208p ps=1.32u w=0.8u l=0.28u
X176 a_14514_10895# RST.t4 a_14354_10895# VSS.t259 nfet_03v3 ad=0.172p pd=1.18u as=0.172p ps=1.18u w=0.66u l=0.28u
X177 VDD CLK_div_3_mag_0.Q1.t6 CLK_div_3_mag_0.JK_FF_mag_1.nand3_mag_2.OUT VDD.t359 pfet_03v3 ad=0.208p pd=1.32u as=0.352p ps=2.48u w=0.8u l=0.28u
X178 CLK_DIV_11_mag_new_0.Q0 CLK_DIV_11_mag_new_0.JK_FF_mag_3.nand2_mag_1.IN2 VDD.t168 VDD.t167 pfet_03v3 ad=0.208p pd=1.32u as=0.352p ps=2.48u w=0.8u l=0.28u
X179 VSS CLK_div_3_mag_0.and2_mag_0.GF_INV_MAG_0.IN CLK_div_3_mag_0.or_2_mag_0.IN2 VSS.t260 nfet_03v3 ad=0.152p pd=1.64u as=0.152p ps=1.64u w=0.22u l=0.28u
X180 CLK_DIV_11_mag_new_0.JK_FF_mag_3.nand3_mag_1.IN1 CLK_DIV_11_mag_new_0.JK_FF_mag_3.nand3_mag_1.OUT a_15506_13026# VSS.t129 nfet_03v3 ad=0.194p pd=1.76u as=0.114p ps=0.96u w=0.44u l=0.28u
X181 CLK_DIV_11_mag_new_0.or_2_mag_3.GF_INV_MAG_1.IN CLK_DIV_11_mag_new_0.or_2_mag_3.IN1.t5 a_5466_15136# VDD.t369 pfet_03v3 ad=0.704p pd=4.08u as=0.416p ps=2.12u w=1.6u l=0.28u
X182 CLK_DIV_11_mag_new_0.JK_FF_mag_2.nand3_mag_0.OUT CLK_DIV_11_mag_new_0.JK_FF_mag_2.K VDD.t412 VDD.t411 pfet_03v3 ad=0.208p pd=1.32u as=0.352p ps=2.48u w=0.8u l=0.28u
X183 VDD CLK_DIV_11_mag_new_0.JK_FF_mag_1.nand2_mag_3.IN1 CLK_DIV_11_mag_new_0.JK_FF_mag_1.nand2_mag_4.IN2 VDD.t504 pfet_03v3 ad=0.352p pd=2.48u as=0.208p ps=1.32u w=0.8u l=0.28u
X184 CLK_DIV_11_mag_new_0.Q0 CLK_DIV_11_mag_new_0.JK_FF_mag_3.QB a_16634_13026# VSS.t120 nfet_03v3 ad=0.194p pd=1.76u as=0.114p ps=0.96u w=0.44u l=0.28u
X185 CLK_DIV_11_mag_new_0.nand3_mag_0.OUT CLK_DIV_11_mag_new_0.Q2 a_2757_14017# VSS.t275 nfet_03v3 ad=0.29p pd=2.2u as=0.172p ps=1.18u w=0.66u l=0.28u
X186 a_8509_12984# CLK_DIV_11_mag_new_0.JK_FF_mag_1.K.t3 VSS.t163 VSS.t162 nfet_03v3 ad=0.172p pd=1.18u as=0.29p ps=2.2u w=0.66u l=0.28u
X187 VSS CLK.t9 CLK_div_3_mag_1.JK_FF_mag_0.nand2_mag_3.IN1 VSS.t43 nfet_03v3 ad=0.152p pd=1.64u as=0.152p ps=1.64u w=0.22u l=0.28u
X188 CLK_div_3_mag_0.JK_FF_mag_1.nand3_mag_1.OUT RST.t5 VDD.t20 VDD.t19 pfet_03v3 ad=0.208p pd=1.32u as=0.208p ps=1.32u w=0.8u l=0.28u
X189 a_12341_11889# CLK_DIV_11_mag_new_0.JK_FF_mag_2.nand3_mag_2.OUT VSS.t140 VSS.t139 nfet_03v3 ad=0.172p pd=1.18u as=0.29p ps=2.2u w=0.66u l=0.28u
X190 CLK_DIV_11_mag_new_0.and2_mag_2.GF_INV_MAG_0.IN CLK_DIV_11_mag_new_0.Q3 a_2590_14702# VSS.t209 nfet_03v3 ad=0.194p pd=1.76u as=0.114p ps=0.96u w=0.44u l=0.28u
X191 CLK_DIV_11_mag_new_0.Buffer_delayed_mag_1.Inverter_delayed_mag_0.IN CLK_DIV_11_mag_new_0.GF_INV_MAG_1.OUT VDD.t356 VDD.t355 pfet_03v3 ad=0.352p pd=2.48u as=0.352p ps=2.48u w=0.8u l=1u
X192 a_10806_8231# CLK_div_3_mag_1.Q0.t6 CLK_div_3_mag_1.or_2_mag_0.GF_INV_MAG_1.IN VDD.t143 pfet_03v3 ad=0.416p pd=2.12u as=0.704p ps=4.08u w=1.6u l=0.28u