* NGSPICE file created from CLK_div_100_mag_flat.ext - technology: gf180mcuC

.subckt CLK_div_100_mag_flat VDD CLK Vdiv100 RST VSS
X0 a_6311_5223# CLK_div_10_mag_1.Q1.t3 CLK_div_10_mag_1.JK_FF_mag_2.QB VSS.t207 nfet_03v3 ad=0.114p pd=0.96u as=0.194p ps=1.76u w=0.44u l=0.28u
X1 VDD CLK_div_10_mag_1.JK_FF_mag_0.nand3_mag_0.OUT CLK_div_10_mag_1.JK_FF_mag_0.nand3_mag_1.IN1 VDD.t133 pfet_03v3 ad=0.352p pd=2.48u as=0.208p ps=1.32u w=0.8u l=0.28u
X2 VDD VDD.t184 CLK_div_10_mag_1.JK_FF_mag_1.nand3_mag_0.OUT VDD.t185 pfet_03v3 ad=0.352p pd=2.48u as=0.208p ps=1.32u w=0.8u l=0.28u
X3 CLK_div_10_mag_0.JK_FF_mag_2.nand3_mag_2.OUT CLK_div_10_mag_0.Q1 VDD.t24 VDD.t23 pfet_03v3 ad=0.352p pd=2.48u as=0.208p ps=1.32u w=0.8u l=0.28u
X4 a_8323_5223# CLK_div_10_mag_1.Q0.t3 a_8163_5223# VSS.t216 nfet_03v3 ad=0.172p pd=1.18u as=0.172p ps=1.18u w=0.66u l=0.28u
X5 VDD CLK_div_10_mag_1.JK_FF_mag_3.nand2_mag_4.IN2 CLK_div_10_mag_1.JK_FF_mag_3.QB VDD.t357 pfet_03v3 ad=0.352p pd=2.48u as=0.208p ps=1.32u w=0.8u l=0.28u
X6 a_5300_4126# CLK_div_10_mag_1.Q1.t4 a_5140_4126# VSS.t206 nfet_03v3 ad=0.172p pd=1.18u as=0.172p ps=1.18u w=0.66u l=0.28u
X7 a_230_2335# CLK_div_10_mag_1.Q3 Vdiv100.t2 VDD.t72 pfet_03v3 ad=0.624p pd=2.92u as=1.06p ps=5.68u w=2.4u l=0.28u
X8 CLK_div_10_mag_1.JK_FF_mag_3.nand2_mag_4.IN2 CLK_div_10_mag_1.JK_FF_mag_3.nand2_mag_3.IN1 VDD.t320 VDD.t319 pfet_03v3 ad=0.208p pd=1.32u as=0.352p ps=2.48u w=0.8u l=0.28u
X9 VDD CLK_div_10_mag_1.JK_FF_mag_0.J CLK_div_10_mag_1.JK_FF_mag_0.nand3_mag_0.OUT VDD.t297 pfet_03v3 ad=0.352p pd=2.48u as=0.208p ps=1.32u w=0.8u l=0.28u
X10 a_794_1309# CLK.t0 a_634_1309# VSS.t296 nfet_03v3 ad=0.172p pd=1.18u as=0.172p ps=1.18u w=0.66u l=0.28u
X11 CLK_div_10_mag_0.Q1 CLK_div_10_mag_0.JK_FF_mag_2.QB a_5503_1353# VSS.t213 nfet_03v3 ad=0.194p pd=1.76u as=0.114p ps=0.96u w=0.44u l=0.28u
X12 VDD VDD.t180 CLK_div_10_mag_1.JK_FF_mag_3.nand3_mag_2.OUT VDD.t181 pfet_03v3 ad=0.352p pd=2.48u as=0.208p ps=1.32u w=0.8u l=0.28u
X13 VDD CLK_div_10_mag_1.JK_FF_mag_0.nand3_mag_1.IN1 CLK_div_10_mag_1.JK_FF_mag_0.nand2_mag_1.IN2 VDD.t64 pfet_03v3 ad=0.352p pd=2.48u as=0.208p ps=1.32u w=0.8u l=0.28u
X14 CLK_div_10_mag_0.JK_FF_mag_2.nand2_mag_1.IN2 CLK_div_10_mag_0.JK_FF_mag_2.nand3_mag_1.IN1 VDD.t90 VDD.t89 pfet_03v3 ad=0.208p pd=1.32u as=0.352p ps=2.48u w=0.8u l=0.28u
X15 a_4375_1353# CLK_div_10_mag_0.JK_FF_mag_2.nand3_mag_0.OUT VSS.t87 VSS.t86 nfet_03v3 ad=0.114p pd=0.96u as=0.194p ps=1.76u w=0.44u l=0.28u
X16 VDD CLK_div_10_mag_0.Q0 CLK_div_10_mag_0.JK_FF_mag_0.nand3_mag_2.OUT VDD.t423 pfet_03v3 ad=0.208p pd=1.32u as=0.208p ps=1.32u w=0.8u l=0.28u
X17 CLK_div_10_mag_1.JK_FF_mag_3.nand3_mag_1.OUT RST.t0 VDD.t347 VDD.t346 pfet_03v3 ad=0.208p pd=1.32u as=0.208p ps=1.32u w=0.8u l=0.28u
X18 CLK_div_10_mag_0.JK_FF_mag_2.nand2_mag_3.IN1 CLK_div_10_mag_0.Q0 VDD.t422 VDD.t421 pfet_03v3 ad=0.352p pd=2.48u as=0.352p ps=2.48u w=0.8u l=0.28u
X19 CLK_div_10_mag_0.JK_FF_mag_2.nand3_mag_0.OUT CLK_div_10_mag_0.JK_FF_mag_2.J.t3 VDD.t93 VDD.t92 pfet_03v3 ad=0.208p pd=1.32u as=0.352p ps=2.48u w=0.8u l=0.28u
X20 VSS CLK_div_10_mag_1.JK_FF_mag_3.nand3_mag_1.OUT a_3858_5223# VSS.t120 nfet_03v3 ad=0.194p pd=1.76u as=0.114p ps=0.96u w=0.44u l=0.28u
X21 CLK_div_10_mag_1.JK_FF_mag_3.QB CLK_div_10_mag_1.Q2.t3 VDD.t194 VDD.t193 pfet_03v3 ad=0.208p pd=1.32u as=0.352p ps=2.48u w=0.8u l=0.28u
X22 CLK_div_10_mag_1.JK_FF_mag_0.nand3_mag_1.IN1 CLK_div_10_mag_1.JK_FF_mag_0.nand3_mag_1.OUT VDD.t50 VDD.t49 pfet_03v3 ad=0.208p pd=1.32u as=0.352p ps=2.48u w=0.8u l=0.28u
X23 VSS CLK_div_10_mag_0.and2_mag_0.OUT CLK_div_10_mag_1.CLK VSS.t65 nfet_03v3 ad=86.8f pd=0.92u as=86.8f ps=0.92u w=0.22u l=0.28u
X24 CLK_div_10_mag_0.JK_FF_mag_3.nand3_mag_1.OUT CLK_div_10_mag_0.JK_FF_mag_3.nand3_mag_1.IN1 VDD.t54 VDD.t53 pfet_03v3 ad=0.352p pd=2.48u as=0.208p ps=1.32u w=0.8u l=0.28u
X25 a_8163_5223# CLK_div_10_mag_1.Q1.t5 CLK_div_10_mag_1.JK_FF_mag_2.nand3_mag_2.OUT VSS.t205 nfet_03v3 ad=0.172p pd=1.18u as=0.29p ps=2.2u w=0.66u l=0.28u
X26 VSS CLK_div_10_mag_1.JK_FF_mag_1.nand3_mag_0.OUT a_10610_4126# VSS.t68 nfet_03v3 ad=0.194p pd=1.76u as=0.114p ps=0.96u w=0.44u l=0.28u
X27 a_9510_2450# CLK_div_10_mag_0.Q0 VSS.t276 VSS.t275 nfet_03v3 ad=0.114p pd=0.96u as=0.194p ps=1.76u w=0.44u l=0.28u
X28 a_2076_256# CLK_div_10_mag_0.JK_FF_mag_1.nand3_mag_1.OUT VSS.t128 VSS.t127 nfet_03v3 ad=0.114p pd=0.96u as=0.194p ps=1.76u w=0.44u l=0.28u
X29 VSS CLK_div_10_mag_1.JK_FF_mag_3.nand3_mag_2.OUT a_4582_5223# VSS.t83 nfet_03v3 ad=0.29p pd=2.2u as=0.172p ps=1.18u w=0.66u l=0.28u
X30 VSS CLK_div_10_mag_1.JK_FF_mag_0.nand3_mag_0.OUT a_1559_4126# VSS.t93 nfet_03v3 ad=0.194p pd=1.76u as=0.114p ps=0.96u w=0.44u l=0.28u
X31 CLK_div_10_mag_1.JK_FF_mag_0.nand3_mag_0.OUT CLK_div_10_mag_1.Q0.t4 VDD.t337 VDD.t336 pfet_03v3 ad=0.208p pd=1.32u as=0.208p ps=1.32u w=0.8u l=0.28u
X32 CLK_div_10_mag_0.nor_3_mag_0.IN3 CLK_div_10_mag_0.Buffer_delayed_mag_0.Inverter_delayed_mag_0.IN VSS.t24 VSS.t23 nfet_03v3 ad=0.152p pd=1.64u as=0.152p ps=1.64u w=0.22u l=1u
X33 VSS CLK_div_10_mag_1.JK_FF_mag_3.nand2_mag_4.IN2 a_3294_5223# VSS.t227 nfet_03v3 ad=0.194p pd=1.76u as=0.114p ps=0.96u w=0.44u l=0.28u
X34 VSS VDD.t476 a_11334_4126# VSS.t109 nfet_03v3 ad=0.29p pd=2.2u as=0.172p ps=1.18u w=0.66u l=0.28u
X35 VDD CLK_div_10_mag_1.Q0.t5 CLK_div_10_mag_1.and2_mag_1.GF_INV_MAG_0.IN VDD.t338 pfet_03v3 ad=0.352p pd=2.48u as=0.208p ps=1.32u w=0.8u l=0.28u
X36 VSS CLK_div_10_mag_1.JK_FF_mag_0.J a_2283_4126# VSS.t196 nfet_03v3 ad=0.29p pd=2.2u as=0.172p ps=1.18u w=0.66u l=0.28u
X37 VDD CLK_div_10_mag_1.and2_mag_2.GF_INV_MAG_0.IN CLK_div_10_mag_1.JK_FF_mag_0.J VDD.t43 pfet_03v3 ad=0.352p pd=2.48u as=0.352p ps=2.48u w=0.8u l=0.28u
X38 a_788_212# CLK.t1 a_628_212# VSS.t297 nfet_03v3 ad=0.172p pd=1.18u as=0.172p ps=1.18u w=0.66u l=0.28u
X39 a_3858_5223# CLK_div_10_mag_1.JK_FF_mag_3.nand2_mag_3.IN1 CLK_div_10_mag_1.JK_FF_mag_3.nand2_mag_4.IN2 VSS.t209 nfet_03v3 ad=0.114p pd=0.96u as=0.194p ps=1.76u w=0.44u l=0.28u
X40 VSS VDD.t477 a_5306_5223# VSS.t112 nfet_03v3 ad=0.29p pd=2.2u as=0.172p ps=1.18u w=0.66u l=0.28u
X41 VSS CLK_div_10_mag_1.Q1.t6 CLK_div_10_mag_1.JK_FF_mag_3.nand2_mag_3.IN1 VSS.t202 nfet_03v3 ad=0.152p pd=1.64u as=0.152p ps=1.64u w=0.22u l=0.28u
X42 VDD CLK_div_10_mag_0.JK_FF_mag_2.nand2_mag_3.IN1 CLK_div_10_mag_0.JK_FF_mag_2.nand2_mag_1.IN2 VDD.t244 pfet_03v3 ad=0.352p pd=2.48u as=0.208p ps=1.32u w=0.8u l=0.28u
X43 CLK_div_10_mag_0.Q1 CLK_div_10_mag_0.JK_FF_mag_2.nand2_mag_1.IN2 VDD.t322 VDD.t321 pfet_03v3 ad=0.208p pd=1.32u as=0.352p ps=2.48u w=0.8u l=0.28u
X44 a_9845_1309# CLK_div_10_mag_0.Q0 a_9685_1309# VSS.t274 nfet_03v3 ad=0.172p pd=1.18u as=0.172p ps=1.18u w=0.66u l=0.28u
X45 VSS CLK_div_10_mag_1.JK_FF_mag_0.nand3_mag_1.IN1 a_995_4126# VSS.t44 nfet_03v3 ad=0.194p pd=1.76u as=0.114p ps=0.96u w=0.44u l=0.28u
X46 VDD CLK_div_10_mag_1.JK_FF_mag_0.nand2_mag_1.IN2 CLK_div_10_mag_1.Q3 VDD.t365 pfet_03v3 ad=0.352p pd=2.48u as=0.208p ps=1.32u w=0.8u l=0.28u
X47 CLK_div_10_mag_1.JK_FF_mag_0.nand2_mag_1.IN2 CLK_div_10_mag_1.JK_FF_mag_0.nand2_mag_3.IN1 VDD.t132 VDD.t131 pfet_03v3 ad=0.208p pd=1.32u as=0.352p ps=2.48u w=0.8u l=0.28u
X48 CLK_div_10_mag_0.JK_FF_mag_2.nand2_mag_4.IN2 CLK_div_10_mag_0.JK_FF_mag_2.nand3_mag_1.OUT VDD.t354 VDD.t353 pfet_03v3 ad=0.208p pd=1.32u as=0.352p ps=2.48u w=0.8u l=0.28u
X49 a_4582_5223# RST.t1 a_4422_5223# VSS.t324 nfet_03v3 ad=0.172p pd=1.18u as=0.172p ps=1.18u w=0.66u l=0.28u
X50 a_1559_4126# CLK_div_10_mag_1.JK_FF_mag_0.nand3_mag_1.OUT CLK_div_10_mag_1.JK_FF_mag_0.nand3_mag_1.IN1 VSS.t33 nfet_03v3 ad=0.114p pd=0.96u as=0.194p ps=1.76u w=0.44u l=0.28u
X51 CLK_div_10_mag_0.JK_FF_mag_2.nand3_mag_2.OUT CLK_div_10_mag_0.Q1 a_3805_212# VSS.t13 nfet_03v3 ad=0.29p pd=2.2u as=0.172p ps=1.18u w=0.66u l=0.28u
X52 a_3294_5223# CLK_div_10_mag_1.Q2.t4 CLK_div_10_mag_1.JK_FF_mag_3.QB VSS.t103 nfet_03v3 ad=0.114p pd=0.96u as=0.194p ps=1.76u w=0.44u l=0.28u
X53 VDD CLK_div_10_mag_1.JK_FF_mag_0.nand3_mag_2.OUT CLK_div_10_mag_1.JK_FF_mag_0.nand3_mag_1.OUT VDD.t261 pfet_03v3 ad=0.352p pd=2.48u as=0.208p ps=1.32u w=0.8u l=0.28u
X54 CLK_div_10_mag_1.and2_mag_1.GF_INV_MAG_0.IN CLK_div_10_mag_1.Q2.t5 VDD.t104 VDD.t103 pfet_03v3 ad=0.208p pd=1.32u as=0.352p ps=2.48u w=0.8u l=0.28u
X55 a_2283_4126# CLK_div_10_mag_1.Q0.t6 a_2123_4126# VSS.t217 nfet_03v3 ad=0.172p pd=1.18u as=0.172p ps=1.18u w=0.66u l=0.28u
X56 VDD RST.t2 CLK_div_10_mag_0.JK_FF_mag_0.nand3_mag_1.OUT VDD.t323 pfet_03v3 ad=0.208p pd=1.32u as=0.208p ps=1.32u w=0.8u l=0.28u
X57 CLK_div_10_mag_0.JK_FF_mag_0.J CLK_div_10_mag_0.and2_mag_2.GF_INV_MAG_0.IN VSS.t118 VSS.t117 nfet_03v3 ad=0.152p pd=1.64u as=0.152p ps=1.64u w=0.22u l=0.28u
X58 VDD CLK_div_10_mag_0.JK_FF_mag_0.nand3_mag_1.OUT CLK_div_10_mag_0.JK_FF_mag_0.nand3_mag_1.IN1 VDD.t75 pfet_03v3 ad=0.352p pd=2.48u as=0.208p ps=1.32u w=0.8u l=0.28u
X59 CLK_div_10_mag_0.JK_FF_mag_0.nand2_mag_1.IN2 CLK_div_10_mag_0.JK_FF_mag_0.nand3_mag_1.IN1 VDD.t267 VDD.t266 pfet_03v3 ad=0.208p pd=1.32u as=0.352p ps=2.48u w=0.8u l=0.28u
X60 a_9839_212# CLK_div_10_mag_0.Q0 a_9679_212# VSS.t273 nfet_03v3 ad=0.172p pd=1.18u as=0.172p ps=1.18u w=0.66u l=0.28u
X61 a_9685_1309# CLK_div_10_mag_0.JK_FF_mag_0.J VSS.t299 VSS.t298 nfet_03v3 ad=0.172p pd=1.18u as=0.29p ps=2.2u w=0.66u l=0.28u
X62 CLK_div_10_mag_0.and2_mag_0.GF_INV_MAG_0.IN CLK_div_10_mag_0.Q2 a_7574_2450# VSS.t290 nfet_03v3 ad=0.194p pd=1.76u as=0.114p ps=0.96u w=0.44u l=0.28u
X63 VDD CLK_div_10_mag_0.JK_FF_mag_1.nand3_mag_1.OUT CLK_div_10_mag_0.JK_FF_mag_1.nand3_mag_1.IN1 VDD.t218 pfet_03v3 ad=0.352p pd=2.48u as=0.208p ps=1.32u w=0.8u l=0.28u
X64 VSS CLK_div_10_mag_1.and2_mag_2.GF_INV_MAG_0.IN CLK_div_10_mag_1.JK_FF_mag_0.J VSS.t27 nfet_03v3 ad=0.152p pd=1.64u as=0.152p ps=1.64u w=0.22u l=0.28u
X65 CLK_div_10_mag_0.JK_FF_mag_1.nand2_mag_1.IN2 CLK_div_10_mag_0.JK_FF_mag_1.nand3_mag_1.IN1 VDD.t215 VDD.t214 pfet_03v3 ad=0.208p pd=1.32u as=0.352p ps=2.48u w=0.8u l=0.28u
X66 CLK_div_10_mag_0.JK_FF_mag_3.nand3_mag_1.OUT CLK_div_10_mag_0.JK_FF_mag_3.nand3_mag_1.IN1 a_7546_212# VSS.t36 nfet_03v3 ad=0.29p pd=2.2u as=0.172p ps=1.18u w=0.66u l=0.28u
X67 CLK_div_10_mag_1.JK_FF_mag_0.nand3_mag_1.OUT RST.t3 VDD.t460 VDD.t459 pfet_03v3 ad=0.208p pd=1.32u as=0.208p ps=1.32u w=0.8u l=0.28u
X68 VSS CLK_div_10_mag_1.JK_FF_mag_0.nand2_mag_1.IN2 a_431_4126# VSS.t235 nfet_03v3 ad=0.194p pd=1.76u as=0.114p ps=0.96u w=0.44u l=0.28u
X69 Vdiv100 CLK_div_10_mag_1.and2_mag_0.OUT VSS.t42 VSS.t41 nfet_03v3 ad=86.8f pd=0.92u as=86.8f ps=0.92u w=0.22u l=0.28u
X70 CLK_div_10_mag_0.JK_FF_mag_1.nand3_mag_2.OUT CLK_div_10_mag_0.Q0 VDD.t420 VDD.t419 pfet_03v3 ad=0.352p pd=2.48u as=0.208p ps=1.32u w=0.8u l=0.28u
X71 a_995_4126# CLK_div_10_mag_1.JK_FF_mag_0.nand2_mag_3.IN1 CLK_div_10_mag_1.JK_FF_mag_0.nand2_mag_1.IN2 VSS.t92 nfet_03v3 ad=0.114p pd=0.96u as=0.194p ps=1.76u w=0.44u l=0.28u
X72 VDD CLK_div_10_mag_1.JK_FF_mag_1.nand2_mag_1.IN2 CLK_div_10_mag_1.Q0.t0 VDD.t126 pfet_03v3 ad=0.352p pd=2.48u as=0.208p ps=1.32u w=0.8u l=0.28u
X73 VDD CLK_div_10_mag_1.Buffer_delayed_mag_0.Inverter_delayed_mag_0.IN CLK_div_10_mag_1.nor_3_mag_0.IN3 VDD.t188 pfet_03v3 ad=0.352p pd=2.48u as=0.352p ps=2.48u w=0.8u l=1u
X74 VSS CLK_div_10_mag_1.Q2.t6 a_3426_3029# VSS.t73 nfet_03v3 ad=0.194p pd=1.76u as=0.114p ps=0.96u w=0.44u l=0.28u
X75 CLK_div_10_mag_0.JK_FF_mag_1.QB CLK_div_10_mag_0.Q0 a_2640_256# VSS.t272 nfet_03v3 ad=0.194p pd=1.76u as=0.114p ps=0.96u w=0.44u l=0.28u
X76 VDD CLK_div_10_mag_0.Q1 CLK_div_10_mag_0.JK_FF_mag_2.QB VDD.t20 pfet_03v3 ad=0.352p pd=2.48u as=0.208p ps=1.32u w=0.8u l=0.28u
X77 CLK_div_10_mag_0.JK_FF_mag_2.nand3_mag_2.OUT VDD.t177 VDD.t179 VDD.t178 pfet_03v3 ad=0.208p pd=1.32u as=0.352p ps=2.48u w=0.8u l=0.28u
X78 CLK_div_10_mag_0.JK_FF_mag_3.nand3_mag_0.OUT CLK_div_10_mag_0.JK_FF_mag_3.QB a_6828_1309# VSS.t22 nfet_03v3 ad=0.29p pd=2.2u as=0.172p ps=1.18u w=0.66u l=0.28u
X79 VSS CLK_div_10_mag_1.JK_FF_mag_0.nand3_mag_2.OUT a_1565_5223# VSS.t159 nfet_03v3 ad=0.29p pd=2.2u as=0.172p ps=1.18u w=0.66u l=0.28u
X80 a_7574_2450# CLK_div_10_mag_0.Q1 VSS.t12 VSS.t11 nfet_03v3 ad=0.114p pd=0.96u as=0.194p ps=1.76u w=0.44u l=0.28u
X81 CLK_div_10_mag_0.JK_FF_mag_0.nand2_mag_4.IN2 CLK_div_10_mag_0.JK_FF_mag_0.nand2_mag_3.IN1 a_11127_256# VSS.t80 nfet_03v3 ad=0.194p pd=1.76u as=0.114p ps=0.96u w=0.44u l=0.28u
X82 CLK_div_10_mag_0.JK_FF_mag_1.nand3_mag_1.IN1 CLK_div_10_mag_0.JK_FF_mag_1.nand3_mag_0.OUT VDD.t464 VDD.t463 pfet_03v3 ad=0.208p pd=1.32u as=0.352p ps=2.48u w=0.8u l=0.28u
X83 VDD RST.t4 CLK_div_10_mag_0.JK_FF_mag_1.nand3_mag_1.OUT VDD.t331 pfet_03v3 ad=0.208p pd=1.32u as=0.208p ps=1.32u w=0.8u l=0.28u
X84 CLK_div_10_mag_0.JK_FF_mag_1.nand3_mag_0.OUT CLK_div_10_mag_0.JK_FF_mag_1.QB VDD.t235 VDD.t234 pfet_03v3 ad=0.352p pd=2.48u as=0.208p ps=1.32u w=0.8u l=0.28u
X85 VDD CLK_div_10_mag_0.JK_FF_mag_1.nand2_mag_3.IN1 CLK_div_10_mag_0.JK_FF_mag_1.nand2_mag_1.IN2 VDD.t277 pfet_03v3 ad=0.352p pd=2.48u as=0.208p ps=1.32u w=0.8u l=0.28u
X86 CLK_div_10_mag_1.Q0 CLK_div_10_mag_1.JK_FF_mag_1.QB VDD.t240 VDD.t239 pfet_03v3 ad=0.208p pd=1.32u as=0.352p ps=2.48u w=0.8u l=0.28u
X87 a_1565_5223# RST.t5 a_1405_5223# VSS.t241 nfet_03v3 ad=0.172p pd=1.18u as=0.172p ps=1.18u w=0.66u l=0.28u
X88 CLK_div_10_mag_0.JK_FF_mag_3.nand2_mag_1.IN2 CLK_div_10_mag_0.JK_FF_mag_3.nand2_mag_3.IN1 a_7956_1353# VSS.t72 nfet_03v3 ad=0.194p pd=1.76u as=0.114p ps=0.96u w=0.44u l=0.28u
X89 VSS CLK_div_10_mag_1.JK_FF_mag_1.nand2_mag_1.IN2 a_9482_4126# VSS.t88 nfet_03v3 ad=0.194p pd=1.76u as=0.114p ps=0.96u w=0.44u l=0.28u
X90 CLK_div_10_mag_0.and2_mag_0.OUT CLK_div_10_mag_0.and2_mag_0.GF_INV_MAG_0.IN VDD.t469 VDD.t468 pfet_03v3 ad=0.352p pd=2.48u as=0.352p ps=2.48u w=0.8u l=0.28u
X91 CLK_div_10_mag_0.and2_mag_2.GF_INV_MAG_0.IN CLK_div_10_mag_0.Q2 VDD.t448 VDD.t447 pfet_03v3 ad=0.208p pd=1.32u as=0.352p ps=2.48u w=0.8u l=0.28u
X92 a_10563_212# RST.t6 a_10403_212# VSS.t316 nfet_03v3 ad=0.172p pd=1.18u as=0.172p ps=1.18u w=0.66u l=0.28u
X93 a_8520_1353# CLK_div_10_mag_0.JK_FF_mag_3.nand2_mag_1.IN2 VSS.t26 VSS.t25 nfet_03v3 ad=0.114p pd=0.96u as=0.194p ps=1.76u w=0.44u l=0.28u
X94 a_5657_256# CLK_div_10_mag_0.JK_FF_mag_2.nand2_mag_4.IN2 VSS.t135 VSS.t134 nfet_03v3 ad=0.114p pd=0.96u as=0.194p ps=1.76u w=0.44u l=0.28u
X95 CLK_div_10_mag_0.JK_FF_mag_1.nand2_mag_4.IN2 CLK_div_10_mag_0.JK_FF_mag_1.nand2_mag_3.IN1 a_2076_256# VSS.t170 nfet_03v3 ad=0.194p pd=1.76u as=0.114p ps=0.96u w=0.44u l=0.28u
X96 VDD CLK_div_10_mag_1.JK_FF_mag_2.nand3_mag_1.IN1 CLK_div_10_mag_1.JK_FF_mag_2.nand3_mag_1.OUT VDD.t28 pfet_03v3 ad=0.208p pd=1.32u as=0.352p ps=2.48u w=0.8u l=0.28u
X97 VSS CLK_div_10_mag_1.Q3 Vdiv100.t1 VSS.t49 nfet_03v3 ad=86.8f pd=0.92u as=0.152p ps=1.64u w=0.22u l=0.28u
X98 VDD CLK.t2 CLK_div_10_mag_0.JK_FF_mag_1.nand3_mag_0.OUT VDD.t374 pfet_03v3 ad=0.208p pd=1.32u as=0.208p ps=1.32u w=0.8u l=0.28u
X99 CLK_div_10_mag_0.JK_FF_mag_3.nand3_mag_2.OUT CLK_div_10_mag_0.Q2 VDD.t445 VDD.t444 pfet_03v3 ad=0.352p pd=2.48u as=0.208p ps=1.32u w=0.8u l=0.28u
X100 CLK_div_10_mag_0.JK_FF_mag_2.nand3_mag_1.OUT CLK_div_10_mag_0.JK_FF_mag_2.nand3_mag_2.OUT VDD.t248 VDD.t247 pfet_03v3 ad=0.208p pd=1.32u as=0.352p ps=2.48u w=0.8u l=0.28u
X101 VDD CLK_div_10_mag_1.JK_FF_mag_3.QB CLK_div_10_mag_1.JK_FF_mag_3.nand3_mag_0.OUT VDD.t343 pfet_03v3 ad=0.208p pd=1.32u as=0.352p ps=2.48u w=0.8u l=0.28u
X102 VDD CLK_div_10_mag_0.Q2 CLK_div_10_mag_0.and2_mag_1.GF_INV_MAG_0.IN VDD.t442 pfet_03v3 ad=0.352p pd=2.48u as=0.208p ps=1.32u w=0.8u l=0.28u
X103 CLK_div_10_mag_0.JK_FF_mag_1.nand3_mag_2.OUT CLK_div_10_mag_0.Q0 a_788_212# VSS.t271 nfet_03v3 ad=0.29p pd=2.2u as=0.172p ps=1.18u w=0.66u l=0.28u
X104 a_9482_4126# CLK_div_10_mag_1.JK_FF_mag_1.QB CLK_div_10_mag_1.Q0.t2 VSS.t142 nfet_03v3 ad=0.114p pd=0.96u as=0.194p ps=1.76u w=0.44u l=0.28u
X105 VSS CLK_div_10_mag_1.Buffer_delayed_mag_0.Inverter_delayed_mag_0.IN CLK_div_10_mag_1.nor_3_mag_0.IN3 VSS.t98 nfet_03v3 ad=0.152p pd=1.64u as=0.152p ps=1.64u w=0.22u l=1u
X106 a_3645_212# VDD.t478 VSS.t172 VSS.t171 nfet_03v3 ad=0.172p pd=1.18u as=0.29p ps=2.2u w=0.66u l=0.28u
X107 VDD CLK_div_10_mag_1.JK_FF_mag_2.nand2_mag_1.IN2 CLK_div_10_mag_1.Q1.t0 VDD.t4 pfet_03v3 ad=0.352p pd=2.48u as=0.208p ps=1.32u w=0.8u l=0.28u
X108 CLK_div_10_mag_0.JK_FF_mag_2.nand3_mag_0.OUT CLK_div_10_mag_0.JK_FF_mag_2.QB a_3811_1309# VSS.t212 nfet_03v3 ad=0.29p pd=2.2u as=0.172p ps=1.18u w=0.66u l=0.28u
X109 a_4939_1353# CLK_div_10_mag_0.JK_FF_mag_2.nand3_mag_1.IN1 VSS.t64 VSS.t63 nfet_03v3 ad=0.114p pd=0.96u as=0.194p ps=1.76u w=0.44u l=0.28u
X110 CLK_div_10_mag_0.JK_FF_mag_3.QB CLK_div_10_mag_0.JK_FF_mag_3.nand2_mag_4.IN2 VDD.t225 VDD.t224 pfet_03v3 ad=0.208p pd=1.32u as=0.352p ps=2.48u w=0.8u l=0.28u
X111 VDD CLK_div_10_mag_0.JK_FF_mag_2.nand2_mag_3.IN1 CLK_div_10_mag_0.JK_FF_mag_2.nand2_mag_4.IN2 VDD.t241 pfet_03v3 ad=0.352p pd=2.48u as=0.208p ps=1.32u w=0.8u l=0.28u
X112 CLK_div_10_mag_0.Buffer_delayed_mag_0.Inverter_delayed_mag_0.IN CLK_div_10_mag_0.and2_mag_1.OUT VSS.t105 VSS.t104 nfet_03v3 ad=0.152p pd=1.64u as=0.152p ps=1.64u w=0.22u l=1u
X113 VDD CLK_div_10_mag_1.CLK CLK_div_10_mag_1.JK_FF_mag_1.nand2_mag_3.IN1 VDD.t273 pfet_03v3 ad=0.352p pd=2.48u as=0.352p ps=2.48u w=0.8u l=0.28u
X114 a_1512_212# RST.t7 a_1352_212# VSS.t185 nfet_03v3 ad=0.172p pd=1.18u as=0.172p ps=1.18u w=0.66u l=0.28u
X115 VDD CLK_div_10_mag_1.Q0.t7 CLK_div_10_mag_1.JK_FF_mag_0.nand2_mag_3.IN1 VDD.t136 pfet_03v3 ad=0.352p pd=2.48u as=0.352p ps=2.48u w=0.8u l=0.28u
X116 VDD CLK_div_10_mag_1.JK_FF_mag_1.nand3_mag_1.IN1 CLK_div_10_mag_1.JK_FF_mag_1.nand2_mag_1.IN2 VDD.t84 pfet_03v3 ad=0.352p pd=2.48u as=0.208p ps=1.32u w=0.8u l=0.28u
X117 CLK_div_10_mag_1.JK_FF_mag_1.nand3_mag_1.IN1 CLK_div_10_mag_1.JK_FF_mag_1.nand3_mag_1.OUT VDD.t402 VDD.t401 pfet_03v3 ad=0.208p pd=1.32u as=0.352p ps=2.48u w=0.8u l=0.28u
X118 a_7439_5223# CLK_div_10_mag_1.JK_FF_mag_2.nand3_mag_1.IN1 CLK_div_10_mag_1.JK_FF_mag_2.nand3_mag_1.OUT VSS.t17 nfet_03v3 ad=0.172p pd=1.18u as=0.29p ps=2.2u w=0.66u l=0.28u
X119 VDD CLK_div_10_mag_0.Q0 CLK_div_10_mag_0.JK_FF_mag_0.nand3_mag_0.OUT VDD.t416 pfet_03v3 ad=0.208p pd=1.32u as=0.208p ps=1.32u w=0.8u l=0.28u
X120 CLK_div_10_mag_0.JK_FF_mag_0.nand3_mag_1.OUT CLK_div_10_mag_0.JK_FF_mag_0.nand3_mag_1.IN1 VDD.t265 VDD.t264 pfet_03v3 ad=0.352p pd=2.48u as=0.208p ps=1.32u w=0.8u l=0.28u
X121 CLK_div_10_mag_1.Q1 CLK_div_10_mag_1.JK_FF_mag_2.QB VDD.t292 VDD.t291 pfet_03v3 ad=0.208p pd=1.32u as=0.352p ps=2.48u w=0.8u l=0.28u
X122 CLK_div_10_mag_1.JK_FF_mag_1.nand3_mag_0.OUT CLK_div_10_mag_1.CLK VDD.t431 VDD.t430 pfet_03v3 ad=0.208p pd=1.32u as=0.208p ps=1.32u w=0.8u l=0.28u
X123 a_5140_4126# CLK_div_10_mag_1.JK_FF_mag_3.QB CLK_div_10_mag_1.JK_FF_mag_3.nand3_mag_0.OUT VSS.t219 nfet_03v3 ad=0.172p pd=1.18u as=0.29p ps=2.2u w=0.66u l=0.28u
X124 CLK_div_10_mag_1.CLK CLK_div_10_mag_0.Q3 a_11738_2752# VDD.t273 pfet_03v3 ad=1.06p pd=5.68u as=0.624p ps=2.92u w=2.4u l=0.28u
X125 CLK_div_10_mag_0.JK_FF_mag_2.nand2_mag_1.IN2 CLK_div_10_mag_0.JK_FF_mag_2.nand2_mag_3.IN1 a_4939_1353# VSS.t144 nfet_03v3 ad=0.194p pd=1.76u as=0.114p ps=0.96u w=0.44u l=0.28u
X126 a_634_1309# VDD.t479 VSS.t174 VSS.t173 nfet_03v3 ad=0.172p pd=1.18u as=0.29p ps=2.2u w=0.66u l=0.28u
X127 a_5503_1353# CLK_div_10_mag_0.JK_FF_mag_2.nand2_mag_1.IN2 VSS.t211 VSS.t210 nfet_03v3 ad=0.114p pd=0.96u as=0.194p ps=1.76u w=0.44u l=0.28u
X128 a_5093_256# CLK_div_10_mag_0.JK_FF_mag_2.nand3_mag_1.OUT VSS.t224 VSS.t223 nfet_03v3 ad=0.114p pd=0.96u as=0.194p ps=1.76u w=0.44u l=0.28u
X129 CLK_div_10_mag_0.JK_FF_mag_3.nand2_mag_4.IN2 CLK_div_10_mag_0.JK_FF_mag_3.nand3_mag_1.OUT VDD.t112 VDD.t111 pfet_03v3 ad=0.208p pd=1.32u as=0.352p ps=2.48u w=0.8u l=0.28u
X130 CLK_div_10_mag_1.JK_FF_mag_3.nand3_mag_2.OUT CLK_div_10_mag_1.Q1.t7 VDD.t316 VDD.t315 pfet_03v3 ad=0.208p pd=1.32u as=0.208p ps=1.32u w=0.8u l=0.28u
X131 VSS CLK_div_10_mag_1.JK_FF_mag_2.nand2_mag_1.IN2 a_6465_4126# VSS.t2 nfet_03v3 ad=0.194p pd=1.76u as=0.114p ps=0.96u w=0.44u l=0.28u
X132 CLK_div_10_mag_0.JK_FF_mag_0.nand2_mag_3.IN1 CLK_div_10_mag_0.Q0 VDD.t415 VDD.t414 pfet_03v3 ad=0.352p pd=2.48u as=0.352p ps=2.48u w=0.8u l=0.28u
X133 VDD CLK_div_10_mag_1.JK_FF_mag_3.nand3_mag_1.IN1 CLK_div_10_mag_1.JK_FF_mag_3.nand3_mag_1.OUT VDD.t285 pfet_03v3 ad=0.208p pd=1.32u as=0.352p ps=2.48u w=0.8u l=0.28u
X134 VSS CLK_div_10_mag_1.nor_3_mag_0.IN3 Vdiv100.t3 VSS.t106 nfet_03v3 ad=0.152p pd=1.64u as=86.8f ps=0.92u w=0.22u l=0.28u
X135 CLK_div_10_mag_0.JK_FF_mag_0.nand3_mag_0.OUT CLK_div_10_mag_0.JK_FF_mag_0.J VDD.t458 VDD.t457 pfet_03v3 ad=0.208p pd=1.32u as=0.352p ps=2.48u w=0.8u l=0.28u
X136 CLK_div_10_mag_0.JK_FF_mag_3.nand3_mag_2.OUT CLK_div_10_mag_0.Q2 a_6822_212# VSS.t289 nfet_03v3 ad=0.29p pd=2.2u as=0.172p ps=1.18u w=0.66u l=0.28u
X137 a_4369_212# CLK_div_10_mag_0.JK_FF_mag_2.nand3_mag_2.OUT VSS.t146 VSS.t145 nfet_03v3 ad=0.172p pd=1.18u as=0.29p ps=2.2u w=0.66u l=0.28u
X138 VSS CLK_div_10_mag_1.JK_FF_mag_1.nand3_mag_1.IN1 a_10046_4126# VSS.t59 nfet_03v3 ad=0.194p pd=1.76u as=0.114p ps=0.96u w=0.44u l=0.28u
X139 VDD CLK_div_10_mag_1.JK_FF_mag_1.QB CLK_div_10_mag_1.JK_FF_mag_1.nand3_mag_0.OUT VDD.t236 pfet_03v3 ad=0.208p pd=1.32u as=0.352p ps=2.48u w=0.8u l=0.28u
X140 a_10610_4126# CLK_div_10_mag_1.JK_FF_mag_1.nand3_mag_1.OUT CLK_div_10_mag_1.JK_FF_mag_1.nand3_mag_1.IN1 VSS.t264 nfet_03v3 ad=0.114p pd=0.96u as=0.194p ps=1.76u w=0.44u l=0.28u
X141 CLK_div_10_mag_0.JK_FF_mag_2.nand2_mag_3.IN1 CLK_div_10_mag_0.Q0 VSS.t270 VSS.t269 nfet_03v3 ad=0.152p pd=1.64u as=0.152p ps=1.64u w=0.22u l=0.28u
X142 CLK_div_10_mag_0.JK_FF_mag_0.nand3_mag_1.IN1 CLK_div_10_mag_0.JK_FF_mag_0.nand3_mag_1.OUT a_10409_1353# VSS.t54 nfet_03v3 ad=0.194p pd=1.76u as=0.114p ps=0.96u w=0.44u l=0.28u
X143 VDD CLK_div_10_mag_1.JK_FF_mag_2.J.t2 CLK_div_10_mag_1.JK_FF_mag_0.nand3_mag_0.OUT VDD.t382 pfet_03v3 ad=0.208p pd=1.32u as=0.352p ps=2.48u w=0.8u l=0.28u
X144 a_10973_1353# CLK_div_10_mag_0.JK_FF_mag_0.nand3_mag_1.IN1 VSS.t164 VSS.t163 nfet_03v3 ad=0.114p pd=0.96u as=0.194p ps=1.76u w=0.44u l=0.28u
X145 VDD CLK_div_10_mag_1.JK_FF_mag_1.nand3_mag_2.OUT CLK_div_10_mag_1.JK_FF_mag_1.nand3_mag_1.OUT VDD.t385 pfet_03v3 ad=0.352p pd=2.48u as=0.208p ps=1.32u w=0.8u l=0.28u
X146 a_6465_4126# CLK_div_10_mag_1.JK_FF_mag_2.QB CLK_div_10_mag_1.Q1.t2 VSS.t191 nfet_03v3 ad=0.114p pd=0.96u as=0.194p ps=1.76u w=0.44u l=0.28u
X147 a_11334_4126# CLK_div_10_mag_1.CLK a_11174_4126# VSS.t282 nfet_03v3 ad=0.172p pd=1.18u as=0.172p ps=1.18u w=0.66u l=0.28u
X148 CLK_div_10_mag_0.JK_FF_mag_3.nand3_mag_0.OUT CLK_div_10_mag_0.JK_FF_mag_3.QB VDD.t38 VDD.t37 pfet_03v3 ad=0.352p pd=2.48u as=0.208p ps=1.32u w=0.8u l=0.28u
X149 CLK_div_10_mag_0.JK_FF_mag_1.nand3_mag_1.IN1 CLK_div_10_mag_0.JK_FF_mag_1.nand3_mag_1.OUT a_1358_1353# VSS.t126 nfet_03v3 ad=0.194p pd=1.76u as=0.114p ps=0.96u w=0.44u l=0.28u
X150 a_1922_1353# CLK_div_10_mag_0.JK_FF_mag_1.nand3_mag_1.IN1 VSS.t125 VSS.t124 nfet_03v3 ad=0.114p pd=0.96u as=0.194p ps=1.76u w=0.44u l=0.28u
X151 a_5306_5223# CLK_div_10_mag_1.Q1.t8 a_5146_5223# VSS.t201 nfet_03v3 ad=0.172p pd=1.18u as=0.172p ps=1.18u w=0.66u l=0.28u
X152 VDD VDD.t173 CLK_div_10_mag_1.JK_FF_mag_1.nand3_mag_2.OUT VDD.t174 pfet_03v3 ad=0.352p pd=2.48u as=0.208p ps=1.32u w=0.8u l=0.28u
X153 VDD VDD.t169 CLK_div_10_mag_1.JK_FF_mag_0.nand3_mag_2.OUT VDD.t170 pfet_03v3 ad=0.352p pd=2.48u as=0.208p ps=1.32u w=0.8u l=0.28u
X154 CLK_div_10_mag_1.Q3 CLK_div_10_mag_1.JK_FF_mag_2.J.t3 VDD.t427 VDD.t426 pfet_03v3 ad=0.208p pd=1.32u as=0.352p ps=2.48u w=0.8u l=0.28u
X155 CLK_div_10_mag_0.JK_FF_mag_0.nand3_mag_1.OUT CLK_div_10_mag_0.JK_FF_mag_0.nand3_mag_1.IN1 a_10563_212# VSS.t162 nfet_03v3 ad=0.29p pd=2.2u as=0.172p ps=1.18u w=0.66u l=0.28u
X156 CLK_div_10_mag_0.JK_FF_mag_2.QB CLK_div_10_mag_0.Q1 a_5657_256# VSS.t10 nfet_03v3 ad=0.194p pd=1.76u as=0.114p ps=0.96u w=0.44u l=0.28u
X157 a_4422_5223# CLK_div_10_mag_1.JK_FF_mag_3.nand3_mag_1.IN1 CLK_div_10_mag_1.JK_FF_mag_3.nand3_mag_1.OUT VSS.t189 nfet_03v3 ad=0.172p pd=1.18u as=0.29p ps=2.2u w=0.66u l=0.28u
X158 VDD CLK_div_10_mag_1.Q2.t7 CLK_div_10_mag_1.and2_mag_2.GF_INV_MAG_0.IN VDD.t105 pfet_03v3 ad=0.352p pd=2.48u as=0.208p ps=1.32u w=0.8u l=0.28u
X159 a_11174_4126# CLK_div_10_mag_1.JK_FF_mag_1.QB CLK_div_10_mag_1.JK_FF_mag_1.nand3_mag_0.OUT VSS.t141 nfet_03v3 ad=0.172p pd=1.18u as=0.29p ps=2.2u w=0.66u l=0.28u
X160 CLK_div_10_mag_0.and2_mag_1.OUT CLK_div_10_mag_0.and2_mag_1.GF_INV_MAG_0.IN VDD.t356 VDD.t355 pfet_03v3 ad=0.352p pd=2.48u as=0.352p ps=2.48u w=0.8u l=0.28u
X161 VDD CLK_div_10_mag_1.and2_mag_0.GF_INV_MAG_0.IN CLK_div_10_mag_1.and2_mag_0.OUT VDD.t249 pfet_03v3 ad=0.352p pd=2.48u as=0.352p ps=2.48u w=0.8u l=0.28u
X162 VDD CLK_div_10_mag_0.JK_FF_mag_2.J.t4 CLK_div_10_mag_0.Q3 VDD.t362 pfet_03v3 ad=0.352p pd=2.48u as=0.208p ps=1.32u w=0.8u l=0.28u
X163 a_1358_1353# CLK_div_10_mag_0.JK_FF_mag_1.nand3_mag_0.OUT VSS.t303 VSS.t302 nfet_03v3 ad=0.114p pd=0.96u as=0.194p ps=1.76u w=0.44u l=0.28u
X164 VDD RST.t8 CLK_div_10_mag_0.JK_FF_mag_2.nand3_mag_1.OUT VDD.t390 pfet_03v3 ad=0.208p pd=1.32u as=0.208p ps=1.32u w=0.8u l=0.28u
X165 a_2123_4126# CLK_div_10_mag_1.JK_FF_mag_2.J.t4 CLK_div_10_mag_1.JK_FF_mag_0.nand3_mag_0.OUT VSS.t277 nfet_03v3 ad=0.172p pd=1.18u as=0.29p ps=2.2u w=0.66u l=0.28u
X166 VSS CLK_div_10_mag_1.JK_FF_mag_1.nand3_mag_2.OUT a_10616_5223# VSS.t249 nfet_03v3 ad=0.29p pd=2.2u as=0.172p ps=1.18u w=0.66u l=0.28u
X167 VDD CLK_div_10_mag_0.JK_FF_mag_1.QB CLK_div_10_mag_0.Q0 VDD.t231 pfet_03v3 ad=0.352p pd=2.48u as=0.208p ps=1.32u w=0.8u l=0.28u
X168 CLK_div_10_mag_0.JK_FF_mag_0.nand3_mag_1.IN1 CLK_div_10_mag_0.JK_FF_mag_0.nand3_mag_0.OUT VDD.t281 VDD.t280 pfet_03v3 ad=0.208p pd=1.32u as=0.352p ps=2.48u w=0.8u l=0.28u
X169 CLK_div_10_mag_0.JK_FF_mag_1.nand2_mag_1.IN2 CLK_div_10_mag_0.JK_FF_mag_1.nand2_mag_3.IN1 a_1922_1353# VSS.t169 nfet_03v3 ad=0.194p pd=1.76u as=0.114p ps=0.96u w=0.44u l=0.28u
X170 CLK_div_10_mag_1.JK_FF_mag_0.nand3_mag_2.OUT CLK_div_10_mag_1.Q0.t8 VDD.t140 VDD.t139 pfet_03v3 ad=0.208p pd=1.32u as=0.208p ps=1.32u w=0.8u l=0.28u
X171 CLK_div_10_mag_1.JK_FF_mag_1.nand2_mag_1.IN2 CLK_div_10_mag_1.JK_FF_mag_1.nand2_mag_3.IN1 VDD.t473 VDD.t472 pfet_03v3 ad=0.208p pd=1.32u as=0.352p ps=2.48u w=0.8u l=0.28u
X172 CLK_div_10_mag_0.JK_FF_mag_3.nand2_mag_3.IN1 CLK_div_10_mag_0.Q1 VDD.t19 VDD.t18 pfet_03v3 ad=0.352p pd=2.48u as=0.352p ps=2.48u w=0.8u l=0.28u
X173 VDD CLK_div_10_mag_0.Q2 CLK_div_10_mag_0.JK_FF_mag_3.QB VDD.t439 pfet_03v3 ad=0.352p pd=2.48u as=0.208p ps=1.32u w=0.8u l=0.28u
X174 VSS VDD.t482 a_11340_5223# VSS.t175 nfet_03v3 ad=0.29p pd=2.2u as=0.172p ps=1.18u w=0.66u l=0.28u
X175 VDD CLK_div_10_mag_0.JK_FF_mag_0.nand2_mag_3.IN1 CLK_div_10_mag_0.JK_FF_mag_0.nand2_mag_1.IN2 VDD.t116 pfet_03v3 ad=0.352p pd=2.48u as=0.208p ps=1.32u w=0.8u l=0.28u
X176 VDD CLK_div_10_mag_1.JK_FF_mag_0.nand3_mag_1.IN1 CLK_div_10_mag_1.JK_FF_mag_0.nand3_mag_1.OUT VDD.t61 pfet_03v3 ad=0.208p pd=1.32u as=0.352p ps=2.48u w=0.8u l=0.28u
X177 a_431_4126# CLK_div_10_mag_1.JK_FF_mag_2.J.t5 CLK_div_10_mag_1.Q3 VSS.t257 nfet_03v3 ad=0.114p pd=0.96u as=0.194p ps=1.76u w=0.44u l=0.28u
X178 VSS VDD.t483 a_2289_5223# VSS.t178 nfet_03v3 ad=0.29p pd=2.2u as=0.172p ps=1.18u w=0.66u l=0.28u
X179 a_3426_3029# CLK_div_10_mag_1.Q1.t9 CLK_div_10_mag_1.and2_mag_2.GF_INV_MAG_0.IN VSS.t73 nfet_03v3 ad=0.114p pd=0.96u as=0.194p ps=1.76u w=0.44u l=0.28u
X180 CLK_div_10_mag_0.and2_mag_2.GF_INV_MAG_0.IN CLK_div_10_mag_0.Q1 a_8542_2450# VSS.t9 nfet_03v3 ad=0.194p pd=1.76u as=0.114p ps=0.96u w=0.44u l=0.28u
X181 a_6828_1309# CLK_div_10_mag_0.Q1 a_6668_1309# VSS.t8 nfet_03v3 ad=0.172p pd=1.18u as=0.172p ps=1.18u w=0.66u l=0.28u
X182 CLK_div_10_mag_0.Q0 CLK_div_10_mag_0.JK_FF_mag_1.nand2_mag_1.IN2 VDD.t389 VDD.t388 pfet_03v3 ad=0.208p pd=1.32u as=0.352p ps=2.48u w=0.8u l=0.28u
X183 CLK_div_10_mag_0.JK_FF_mag_2.J CLK_div_10_mag_0.JK_FF_mag_0.nand2_mag_4.IN2 VDD.t361 VDD.t360 pfet_03v3 ad=0.208p pd=1.32u as=0.352p ps=2.48u w=0.8u l=0.28u
X184 CLK_div_10_mag_0.JK_FF_mag_0.nand3_mag_2.OUT CLK_div_10_mag_0.Q3 VDD.t272 VDD.t271 pfet_03v3 ad=0.352p pd=2.48u as=0.208p ps=1.32u w=0.8u l=0.28u
X185 VDD CLK_div_10_mag_1.JK_FF_mag_0.nand3_mag_1.OUT CLK_div_10_mag_1.JK_FF_mag_0.nand2_mag_4.IN2 VDD.t46 pfet_03v3 ad=0.352p pd=2.48u as=0.208p ps=1.32u w=0.8u l=0.28u
X186 VSS CLK_div_10_mag_1.Q1.t10 a_4394_3029# VSS.t73 nfet_03v3 ad=0.194p pd=1.76u as=0.114p ps=0.96u w=0.44u l=0.28u
X187 VSS CLK_div_10_mag_1.and2_mag_0.GF_INV_MAG_0.IN CLK_div_10_mag_1.and2_mag_0.OUT VSS.t147 nfet_03v3 ad=0.152p pd=1.64u as=0.152p ps=1.64u w=0.22u l=0.28u
X188 CLK_div_10_mag_0.JK_FF_mag_2.nand3_mag_0.OUT CLK_div_10_mag_0.JK_FF_mag_2.QB VDD.t330 VDD.t329 pfet_03v3 ad=0.352p pd=2.48u as=0.208p ps=1.32u w=0.8u l=0.28u
X189 CLK_div_10_mag_0.JK_FF_mag_3.nand3_mag_1.OUT CLK_div_10_mag_0.JK_FF_mag_3.nand3_mag_2.OUT VDD.t120 VDD.t119 pfet_03v3 ad=0.208p pd=1.32u as=0.352p ps=2.48u w=0.8u l=0.28u
X190 a_10046_4126# CLK_div_10_mag_1.JK_FF_mag_1.nand2_mag_3.IN1 CLK_div_10_mag_1.JK_FF_mag_1.nand2_mag_1.IN2 VSS.t323 nfet_03v3 ad=0.114p pd=0.96u as=0.194p ps=1.76u w=0.44u l=0.28u
X191 a_2289_5223# CLK_div_10_mag_1.Q0.t9 a_2129_5223# VSS.t96 nfet_03v3 ad=0.172p pd=1.18u as=0.172p ps=1.18u w=0.66u l=0.28u
X192 a_6668_1309# VDD.t484 VSS.t182 VSS.t181 nfet_03v3 ad=0.172p pd=1.18u as=0.29p ps=2.2u w=0.66u l=0.28u
X193 a_8674_256# CLK_div_10_mag_0.JK_FF_mag_3.nand2_mag_4.IN2 VSS.t133 VSS.t132 nfet_03v3 ad=0.114p pd=0.96u as=0.194p ps=1.76u w=0.44u l=0.28u
X194 CLK_div_10_mag_0.JK_FF_mag_2.nand2_mag_4.IN2 CLK_div_10_mag_0.JK_FF_mag_2.nand2_mag_3.IN1 a_5093_256# VSS.t143 nfet_03v3 ad=0.194p pd=1.76u as=0.114p ps=0.96u w=0.44u l=0.28u
X195 a_1405_5223# CLK_div_10_mag_1.JK_FF_mag_0.nand3_mag_1.IN1 CLK_div_10_mag_1.JK_FF_mag_0.nand3_mag_1.OUT VSS.t43 nfet_03v3 ad=0.172p pd=1.18u as=0.29p ps=2.2u w=0.66u l=0.28u
X196 a_4529_212# RST.t9 a_4369_212# VSS.t97 nfet_03v3 ad=0.172p pd=1.18u as=0.172p ps=1.18u w=0.66u l=0.28u
X197 a_4394_3029# CLK_div_10_mag_1.Q2.t8 CLK_div_10_mag_1.and2_mag_0.GF_INV_MAG_0.IN VSS.t73 nfet_03v3 ad=0.114p pd=0.96u as=0.194p ps=1.76u w=0.44u l=0.28u
X198 CLK_div_10_mag_0.JK_FF_mag_1.nand2_mag_3.IN1 CLK.t3 VDD.t377 VDD.t72 pfet_03v3 ad=0.352p pd=2.48u as=0.352p ps=2.48u w=0.8u l=0.28u