* NGSPICE file created from CLK_div_10_mag_flat.ext - technology: gf180mcuC

.subckt CLK_div_10_mag_flat CLK VSS VDD Q0 Vdiv10 RST Q3 Q1 Q2
X0 JK_FF_mag_2.nand3_mag_2.OUT Q1.t3 VDD.t191 VDD.t190 pfet_03v3 ad=0.352p pd=2.48u as=0.208p ps=1.32u w=0.8u l=0.28u
X1 a_794_1309# CLK.t0 a_634_1309# VSS.t106 nfet_03v3 ad=0.172p pd=1.18u as=0.172p ps=1.18u w=0.66u l=0.28u
X2 Q1 JK_FF_mag_2.Qb a_5503_1353# VSS.t108 nfet_03v3 ad=0.194p pd=1.76u as=0.114p ps=0.96u w=0.44u l=0.28u
X3 JK_FF_mag_2.nand2_mag_1.IN2 JK_FF_mag_2.nand3_mag_1.IN1 VDD.t25 VDD.t24 pfet_03v3 ad=0.208p pd=1.32u as=0.352p ps=2.48u w=0.8u l=0.28u
X4 a_4375_1353# JK_FF_mag_2.nand3_mag_0.OUT VSS.t49 VSS.t48 nfet_03v3 ad=0.114p pd=0.96u as=0.194p ps=1.76u w=0.44u l=0.28u
X5 VDD Q0.t3 JK_FF_mag_0.nand3_mag_2.OUT VDD.t75 pfet_03v3 ad=0.208p pd=1.32u as=0.208p ps=1.32u w=0.8u l=0.28u
X6 JK_FF_mag_2.nand2_mag_3.IN1 Q0.t4 VDD.t17 VDD.t16 pfet_03v3 ad=0.352p pd=2.48u as=0.352p ps=2.48u w=0.8u l=0.28u
X7 JK_FF_mag_2.nand3_mag_0.OUT JK_FF_mag_2.J.t3 VDD.t146 VDD.t145 pfet_03v3 ad=0.208p pd=1.32u as=0.352p ps=2.48u w=0.8u l=0.28u
X8 VSS and2_mag_0.OUT Vdiv10.t0 VSS.t39 nfet_03v3 ad=86.8f pd=0.92u as=86.8f ps=0.92u w=0.22u l=0.28u
X9 JK_FF_mag_3.nand3_mag_1.OUT JK_FF_mag_3.nand3_mag_1.IN1 VDD.t128 VDD.t127 pfet_03v3 ad=0.352p pd=2.48u as=0.208p ps=1.32u w=0.8u l=0.28u
X10 a_9510_2450# Q0.t5 VSS.t14 VSS.t13 nfet_03v3 ad=0.114p pd=0.96u as=0.194p ps=1.76u w=0.44u l=0.28u
X11 a_2076_256# JK_FF_mag_1.nand3_mag_1.OUT VSS.t31 VSS.t30 nfet_03v3 ad=0.114p pd=0.96u as=0.194p ps=1.76u w=0.44u l=0.28u
X12 nor_3_mag_0.IN3 Buffer_delayed_mag_0.Inverter_delayed_mag_0.IN VSS.t82 VSS.t81 nfet_03v3 ad=0.152p pd=1.64u as=0.152p ps=1.64u w=0.22u l=1u
X13 a_788_212# CLK.t1 a_628_212# VSS.t105 nfet_03v3 ad=0.172p pd=1.18u as=0.172p ps=1.18u w=0.66u l=0.28u
X14 VDD JK_FF_mag_2.nand2_mag_3.IN1 JK_FF_mag_2.nand2_mag_1.IN2 VDD.t135 pfet_03v3 ad=0.352p pd=2.48u as=0.208p ps=1.32u w=0.8u l=0.28u
X15 Q1 JK_FF_mag_2.nand2_mag_1.IN2 VDD.t60 VDD.t59 pfet_03v3 ad=0.208p pd=1.32u as=0.352p ps=2.48u w=0.8u l=0.28u
X16 a_9845_1309# Q0.t6 a_9685_1309# VSS.t16 nfet_03v3 ad=0.172p pd=1.18u as=0.172p ps=1.18u w=0.66u l=0.28u
X17 JK_FF_mag_2.nand2_mag_4.IN2 JK_FF_mag_2.nand3_mag_1.OUT VDD.t65 VDD.t64 pfet_03v3 ad=0.208p pd=1.32u as=0.352p ps=2.48u w=0.8u l=0.28u
X18 JK_FF_mag_2.nand3_mag_2.OUT Q1.t4 a_3805_212# VSS.t124 nfet_03v3 ad=0.29p pd=2.2u as=0.172p ps=1.18u w=0.66u l=0.28u
X19 VDD RST.t0 JK_FF_mag_0.nand3_mag_1.OUT VDD.t82 pfet_03v3 ad=0.208p pd=1.32u as=0.208p ps=1.32u w=0.8u l=0.28u
X20 JK_FF_mag_0.J and2_mag_2.GF_INV_MAG_0.IN VSS.t84 VSS.t83 nfet_03v3 ad=0.152p pd=1.64u as=0.152p ps=1.64u w=0.22u l=0.28u
X21 VDD JK_FF_mag_0.nand3_mag_1.OUT JK_FF_mag_0.nand3_mag_1.IN1 VDD.t52 pfet_03v3 ad=0.352p pd=2.48u as=0.208p ps=1.32u w=0.8u l=0.28u
X22 JK_FF_mag_0.nand2_mag_1.IN2 JK_FF_mag_0.nand3_mag_1.IN1 VDD.t41 VDD.t40 pfet_03v3 ad=0.208p pd=1.32u as=0.352p ps=2.48u w=0.8u l=0.28u
X23 a_9839_212# Q0.t7 a_9679_212# VSS.t17 nfet_03v3 ad=0.172p pd=1.18u as=0.172p ps=1.18u w=0.66u l=0.28u
X24 a_9685_1309# JK_FF_mag_0.J VSS.t112 VSS.t111 nfet_03v3 ad=0.172p pd=1.18u as=0.29p ps=2.2u w=0.66u l=0.28u
X25 and2_mag_0.GF_INV_MAG_0.IN Q2.t3 a_7574_2450# VSS.t15 nfet_03v3 ad=0.194p pd=1.76u as=0.114p ps=0.96u w=0.44u l=0.28u
X26 VDD JK_FF_mag_1.nand3_mag_1.OUT JK_FF_mag_1.nand3_mag_1.IN1 VDD.t35 pfet_03v3 ad=0.352p pd=2.48u as=0.208p ps=1.32u w=0.8u l=0.28u
X27 JK_FF_mag_1.nand2_mag_1.IN2 JK_FF_mag_1.nand3_mag_1.IN1 VDD.t224 VDD.t223 pfet_03v3 ad=0.208p pd=1.32u as=0.352p ps=2.48u w=0.8u l=0.28u
X28 JK_FF_mag_3.nand3_mag_1.OUT JK_FF_mag_3.nand3_mag_1.IN1 a_7546_212# VSS.t91 nfet_03v3 ad=0.29p pd=2.2u as=0.172p ps=1.18u w=0.66u l=0.28u
X29 JK_FF_mag_1.nand3_mag_2.OUT Q0.t8 VDD.t173 VDD.t172 pfet_03v3 ad=0.352p pd=2.48u as=0.208p ps=1.32u w=0.8u l=0.28u
X30 JK_FF_mag_1.Qb Q0.t9 a_2640_256# VSS.t115 nfet_03v3 ad=0.194p pd=1.76u as=0.114p ps=0.96u w=0.44u l=0.28u
X31 VDD Q1.t5 JK_FF_mag_2.Qb VDD.t187 pfet_03v3 ad=0.352p pd=2.48u as=0.208p ps=1.32u w=0.8u l=0.28u
X32 JK_FF_mag_2.nand3_mag_2.OUT VDD.t107 VDD.t109 VDD.t108 pfet_03v3 ad=0.208p pd=1.32u as=0.352p ps=2.48u w=0.8u l=0.28u
X33 JK_FF_mag_3.nand3_mag_0.OUT JK_FF_mag_3.Qb a_6828_1309# VSS.t126 nfet_03v3 ad=0.29p pd=2.2u as=0.172p ps=1.18u w=0.66u l=0.28u
X34 a_7574_2450# Q1.t6 VSS.t123 VSS.t122 nfet_03v3 ad=0.114p pd=0.96u as=0.194p ps=1.76u w=0.44u l=0.28u
X35 JK_FF_mag_0.nand2_mag_4.IN2 JK_FF_mag_0.nand2_mag_3.IN1 a_11127_256# VSS.t132 nfet_03v3 ad=0.194p pd=1.76u as=0.114p ps=0.96u w=0.44u l=0.28u
X36 JK_FF_mag_1.nand3_mag_1.IN1 JK_FF_mag_1.nand3_mag_0.OUT VDD.t27 VDD.t26 pfet_03v3 ad=0.208p pd=1.32u as=0.352p ps=2.48u w=0.8u l=0.28u
X37 VDD RST.t1 JK_FF_mag_1.nand3_mag_1.OUT VDD.t197 pfet_03v3 ad=0.208p pd=1.32u as=0.208p ps=1.32u w=0.8u l=0.28u
X38 JK_FF_mag_1.nand3_mag_0.OUT JK_FF_mag_1.Qb VDD.t7 VDD.t6 pfet_03v3 ad=0.352p pd=2.48u as=0.208p ps=1.32u w=0.8u l=0.28u
X39 VDD JK_FF_mag_1.nand2_mag_3.IN1 JK_FF_mag_1.nand2_mag_1.IN2 VDD.t69 pfet_03v3 ad=0.352p pd=2.48u as=0.208p ps=1.32u w=0.8u l=0.28u
X40 JK_FF_mag_3.nand2_mag_1.IN2 JK_FF_mag_3.nand2_mag_3.IN1 a_7956_1353# VSS.t88 nfet_03v3 ad=0.194p pd=1.76u as=0.114p ps=0.96u w=0.44u l=0.28u
X41 and2_mag_0.OUT and2_mag_0.GF_INV_MAG_0.IN VDD.t226 VDD.t225 pfet_03v3 ad=0.352p pd=2.48u as=0.352p ps=2.48u w=0.8u l=0.28u
X42 and2_mag_2.GF_INV_MAG_0.IN Q2.t4 VDD.t19 VDD.t18 pfet_03v3 ad=0.208p pd=1.32u as=0.352p ps=2.48u w=0.8u l=0.28u
X43 a_10563_212# RST.t2 a_10403_212# VSS.t127 nfet_03v3 ad=0.172p pd=1.18u as=0.172p ps=1.18u w=0.66u l=0.28u
X44 a_8520_1353# JK_FF_mag_3.nand2_mag_1.IN2 VSS.t98 VSS.t97 nfet_03v3 ad=0.114p pd=0.96u as=0.194p ps=1.76u w=0.44u l=0.28u
X45 a_5657_256# JK_FF_mag_2.nand2_mag_4.IN2 VSS.t64 VSS.t63 nfet_03v3 ad=0.114p pd=0.96u as=0.194p ps=1.76u w=0.44u l=0.28u
X46 JK_FF_mag_1.nand2_mag_4.IN2 JK_FF_mag_1.nand2_mag_3.IN1 a_2076_256# VSS.t58 nfet_03v3 ad=0.194p pd=1.76u as=0.114p ps=0.96u w=0.44u l=0.28u
X47 VDD CLK.t2 JK_FF_mag_1.nand3_mag_0.OUT VDD.t169 pfet_03v3 ad=0.208p pd=1.32u as=0.208p ps=1.32u w=0.8u l=0.28u
X48 JK_FF_mag_3.nand3_mag_2.OUT Q2.t5 VDD.t21 VDD.t20 pfet_03v3 ad=0.352p pd=2.48u as=0.208p ps=1.32u w=0.8u l=0.28u
X49 JK_FF_mag_2.nand3_mag_1.OUT JK_FF_mag_2.nand3_mag_2.OUT VDD.t43 VDD.t42 pfet_03v3 ad=0.208p pd=1.32u as=0.352p ps=2.48u w=0.8u l=0.28u
X50 VDD Q2.t6 and2_mag_1.GF_INV_MAG_0.IN VDD.t85 pfet_03v3 ad=0.352p pd=2.48u as=0.208p ps=1.32u w=0.8u l=0.28u
X51 JK_FF_mag_1.nand3_mag_2.OUT Q0.t10 a_788_212# VSS.t94 nfet_03v3 ad=0.29p pd=2.2u as=0.172p ps=1.18u w=0.66u l=0.28u
X52 a_3645_212# VDD.t227 VSS.t76 VSS.t75 nfet_03v3 ad=0.172p pd=1.18u as=0.29p ps=2.2u w=0.66u l=0.28u
X53 JK_FF_mag_2.nand3_mag_0.OUT JK_FF_mag_2.Qb a_3811_1309# VSS.t107 nfet_03v3 ad=0.29p pd=2.2u as=0.172p ps=1.18u w=0.66u l=0.28u
X54 a_4939_1353# JK_FF_mag_2.nand3_mag_1.IN1 VSS.t20 VSS.t19 nfet_03v3 ad=0.114p pd=0.96u as=0.194p ps=1.76u w=0.44u l=0.28u
X55 JK_FF_mag_3.Qb JK_FF_mag_3.nand2_mag_4.IN2 VDD.t13 VDD.t12 pfet_03v3 ad=0.208p pd=1.32u as=0.352p ps=2.48u w=0.8u l=0.28u
X56 VDD JK_FF_mag_2.nand2_mag_3.IN1 JK_FF_mag_2.nand2_mag_4.IN2 VDD.t132 pfet_03v3 ad=0.352p pd=2.48u as=0.208p ps=1.32u w=0.8u l=0.28u
X57 Buffer_delayed_mag_0.Inverter_delayed_mag_0.IN and2_mag_1.OUT VSS.t136 VSS.t135 nfet_03v3 ad=0.152p pd=1.64u as=0.152p ps=1.64u w=0.22u l=1u
X58 a_1512_212# RST.t3 a_1352_212# VSS.t23 nfet_03v3 ad=0.172p pd=1.18u as=0.172p ps=1.18u w=0.66u l=0.28u
X59 VDD Q0.t11 JK_FF_mag_0.nand3_mag_0.OUT VDD.t129 pfet_03v3 ad=0.208p pd=1.32u as=0.208p ps=1.32u w=0.8u l=0.28u
X60 JK_FF_mag_0.nand3_mag_1.OUT JK_FF_mag_0.nand3_mag_1.IN1 VDD.t39 VDD.t38 pfet_03v3 ad=0.352p pd=2.48u as=0.208p ps=1.32u w=0.8u l=0.28u
X61 Vdiv10 Q3.t3 a_11738_2752# VDD.t124 pfet_03v3 ad=1.06p pd=5.68u as=0.624p ps=2.92u w=2.4u l=0.28u
X62 JK_FF_mag_2.nand2_mag_1.IN2 JK_FF_mag_2.nand2_mag_3.IN1 a_4939_1353# VSS.t96 nfet_03v3 ad=0.194p pd=1.76u as=0.114p ps=0.96u w=0.44u l=0.28u
X63 a_634_1309# VDD.t228 VSS.t78 VSS.t77 nfet_03v3 ad=0.172p pd=1.18u as=0.29p ps=2.2u w=0.66u l=0.28u
X64 a_5503_1353# JK_FF_mag_2.nand2_mag_1.IN2 VSS.t53 VSS.t52 nfet_03v3 ad=0.114p pd=0.96u as=0.194p ps=1.76u w=0.44u l=0.28u
X65 a_5093_256# JK_FF_mag_2.nand3_mag_1.OUT VSS.t56 VSS.t55 nfet_03v3 ad=0.114p pd=0.96u as=0.194p ps=1.76u w=0.44u l=0.28u
X66 JK_FF_mag_3.nand2_mag_4.IN2 JK_FF_mag_3.nand3_mag_1.OUT VDD.t49 VDD.t48 pfet_03v3 ad=0.208p pd=1.32u as=0.352p ps=2.48u w=0.8u l=0.28u
X67 JK_FF_mag_0.nand2_mag_3.IN1 Q0.t12 VDD.t15 VDD.t14 pfet_03v3 ad=0.352p pd=2.48u as=0.352p ps=2.48u w=0.8u l=0.28u
X68 JK_FF_mag_0.nand3_mag_0.OUT JK_FF_mag_0.J VDD.t166 VDD.t165 pfet_03v3 ad=0.208p pd=1.32u as=0.352p ps=2.48u w=0.8u l=0.28u
X69 JK_FF_mag_3.nand3_mag_2.OUT Q2.t7 a_6822_212# VSS.t62 nfet_03v3 ad=0.29p pd=2.2u as=0.172p ps=1.18u w=0.66u l=0.28u
X70 a_4369_212# JK_FF_mag_2.nand3_mag_2.OUT VSS.t36 VSS.t35 nfet_03v3 ad=0.172p pd=1.18u as=0.29p ps=2.2u w=0.66u l=0.28u
X71 JK_FF_mag_2.nand2_mag_3.IN1 Q0.t13 VSS.t12 VSS.t11 nfet_03v3 ad=0.152p pd=1.64u as=0.152p ps=1.64u w=0.22u l=0.28u
X72 JK_FF_mag_0.nand3_mag_1.IN1 JK_FF_mag_0.nand3_mag_1.OUT a_10409_1353# VSS.t47 nfet_03v3 ad=0.194p pd=1.76u as=0.114p ps=0.96u w=0.44u l=0.28u
X73 a_10973_1353# JK_FF_mag_0.nand3_mag_1.IN1 VSS.t34 VSS.t33 nfet_03v3 ad=0.114p pd=0.96u as=0.194p ps=1.76u w=0.44u l=0.28u
X74 JK_FF_mag_3.nand3_mag_0.OUT JK_FF_mag_3.Qb VDD.t196 VDD.t195 pfet_03v3 ad=0.352p pd=2.48u as=0.208p ps=1.32u w=0.8u l=0.28u
X75 JK_FF_mag_1.nand3_mag_1.IN1 JK_FF_mag_1.nand3_mag_1.OUT a_1358_1353# VSS.t29 nfet_03v3 ad=0.194p pd=1.76u as=0.114p ps=0.96u w=0.44u l=0.28u
X76 a_1922_1353# JK_FF_mag_1.nand3_mag_1.IN1 VSS.t139 VSS.t138 nfet_03v3 ad=0.114p pd=0.96u as=0.194p ps=1.76u w=0.44u l=0.28u
X77 JK_FF_mag_0.nand3_mag_1.OUT JK_FF_mag_0.nand3_mag_1.IN1 a_10563_212# VSS.t32 nfet_03v3 ad=0.29p pd=2.2u as=0.172p ps=1.18u w=0.66u l=0.28u
X78 JK_FF_mag_2.Qb Q1.t7 a_5657_256# VSS.t121 nfet_03v3 ad=0.194p pd=1.76u as=0.114p ps=0.96u w=0.44u l=0.28u
X79 and2_mag_1.OUT and2_mag_1.GF_INV_MAG_0.IN VDD.t215 VDD.t214 pfet_03v3 ad=0.352p pd=2.48u as=0.352p ps=2.48u w=0.8u l=0.28u
X80 VDD JK_FF_mag_2.J.t4 Q3.t2 VDD.t147 pfet_03v3 ad=0.352p pd=2.48u as=0.208p ps=1.32u w=0.8u l=0.28u
X81 a_1358_1353# JK_FF_mag_1.nand3_mag_0.OUT VSS.t22 VSS.t21 nfet_03v3 ad=0.114p pd=0.96u as=0.194p ps=1.76u w=0.44u l=0.28u
X82 VDD RST.t4 JK_FF_mag_2.nand3_mag_1.OUT VDD.t28 pfet_03v3 ad=0.208p pd=1.32u as=0.208p ps=1.32u w=0.8u l=0.28u
X83 VDD JK_FF_mag_1.Qb Q0.t1 VDD.t3 pfet_03v3 ad=0.352p pd=2.48u as=0.208p ps=1.32u w=0.8u l=0.28u
X84 JK_FF_mag_0.nand3_mag_1.IN1 JK_FF_mag_0.nand3_mag_0.OUT VDD.t151 VDD.t150 pfet_03v3 ad=0.208p pd=1.32u as=0.352p ps=2.48u w=0.8u l=0.28u
X85 JK_FF_mag_1.nand2_mag_1.IN2 JK_FF_mag_1.nand2_mag_3.IN1 a_1922_1353# VSS.t57 nfet_03v3 ad=0.194p pd=1.76u as=0.114p ps=0.96u w=0.44u l=0.28u
X86 JK_FF_mag_3.nand2_mag_3.IN1 Q1.t8 VDD.t186 VDD.t185 pfet_03v3 ad=0.352p pd=2.48u as=0.352p ps=2.48u w=0.8u l=0.28u
X87 VDD Q2.t8 JK_FF_mag_3.Qb VDD.t152 pfet_03v3 ad=0.352p pd=2.48u as=0.208p ps=1.32u w=0.8u l=0.28u
X88 VDD JK_FF_mag_0.nand2_mag_3.IN1 JK_FF_mag_0.nand2_mag_1.IN2 VDD.t211 pfet_03v3 ad=0.352p pd=2.48u as=0.208p ps=1.32u w=0.8u l=0.28u
X89 and2_mag_2.GF_INV_MAG_0.IN Q1.t9 a_8542_2450# VSS.t120 nfet_03v3 ad=0.194p pd=1.76u as=0.114p ps=0.96u w=0.44u l=0.28u
X90 a_6828_1309# Q1.t10 a_6668_1309# VSS.t119 nfet_03v3 ad=0.172p pd=1.18u as=0.172p ps=1.18u w=0.66u l=0.28u
X91 Q0 JK_FF_mag_1.nand2_mag_1.IN2 VDD.t11 VDD.t10 pfet_03v3 ad=0.208p pd=1.32u as=0.352p ps=2.48u w=0.8u l=0.28u
X92 JK_FF_mag_2.J JK_FF_mag_0.nand2_mag_4.IN2 VDD.t111 VDD.t110 pfet_03v3 ad=0.208p pd=1.32u as=0.352p ps=2.48u w=0.8u l=0.28u
X93 JK_FF_mag_0.nand3_mag_2.OUT Q3.t4 VDD.t79 VDD.t78 pfet_03v3 ad=0.352p pd=2.48u as=0.208p ps=1.32u w=0.8u l=0.28u
X94 JK_FF_mag_2.nand3_mag_0.OUT JK_FF_mag_2.Qb VDD.t162 VDD.t161 pfet_03v3 ad=0.352p pd=2.48u as=0.208p ps=1.32u w=0.8u l=0.28u
X95 JK_FF_mag_3.nand3_mag_1.OUT JK_FF_mag_3.nand3_mag_2.OUT VDD.t91 VDD.t90 pfet_03v3 ad=0.208p pd=1.32u as=0.352p ps=2.48u w=0.8u l=0.28u
X96 a_6668_1309# VDD.t229 VSS.t74 VSS.t73 nfet_03v3 ad=0.172p pd=1.18u as=0.29p ps=2.2u w=0.66u l=0.28u
X97 a_8674_256# JK_FF_mag_3.nand2_mag_4.IN2 VSS.t10 VSS.t9 nfet_03v3 ad=0.114p pd=0.96u as=0.194p ps=1.76u w=0.44u l=0.28u
X98 JK_FF_mag_2.nand2_mag_4.IN2 JK_FF_mag_2.nand2_mag_3.IN1 a_5093_256# VSS.t95 nfet_03v3 ad=0.194p pd=1.76u as=0.114p ps=0.96u w=0.44u l=0.28u
X99 a_4529_212# RST.t5 a_4369_212# VSS.t129 nfet_03v3 ad=0.172p pd=1.18u as=0.172p ps=1.18u w=0.66u l=0.28u
X100 JK_FF_mag_1.nand2_mag_3.IN1 CLK.t3 VDD.t204 VDD.t203 pfet_03v3 ad=0.352p pd=2.48u as=0.352p ps=2.48u w=0.8u l=0.28u
X101 JK_FF_mag_0.nand2_mag_4.IN2 JK_FF_mag_0.nand3_mag_1.OUT VDD.t51 VDD.t50 pfet_03v3 ad=0.208p pd=1.32u as=0.352p ps=2.48u w=0.8u l=0.28u
X102 JK_FF_mag_1.Qb JK_FF_mag_1.nand2_mag_4.IN2 VDD.t164 VDD.t163 pfet_03v3 ad=0.208p pd=1.32u as=0.352p ps=2.48u w=0.8u l=0.28u
X103 JK_FF_mag_1.nand3_mag_0.OUT VDD.t104 VDD.t106 VDD.t105 pfet_03v3 ad=0.208p pd=1.32u as=0.352p ps=2.48u w=0.8u l=0.28u
X104 JK_FF_mag_0.J and2_mag_2.GF_INV_MAG_0.IN VDD.t115 VDD.t114 pfet_03v3 ad=0.352p pd=2.48u as=0.352p ps=2.48u w=0.8u l=0.28u
X105 and2_mag_1.GF_INV_MAG_0.IN Q0.t14 VDD.t81 VDD.t80 pfet_03v3 ad=0.208p pd=1.32u as=0.352p ps=2.48u w=0.8u l=0.28u
X106 a_8110_256# JK_FF_mag_3.nand3_mag_1.OUT VSS.t44 VSS.t43 nfet_03v3 ad=0.114p pd=0.96u as=0.194p ps=1.76u w=0.44u l=0.28u
X107 a_3811_1309# Q0.t15 a_3651_1309# VSS.t60 nfet_03v3 ad=0.172p pd=1.18u as=0.172p ps=1.18u w=0.66u l=0.28u
X108 JK_FF_mag_0.nand3_mag_2.OUT Q3.t5 a_9839_212# VSS.t59 nfet_03v3 ad=0.29p pd=2.2u as=0.172p ps=1.18u w=0.66u l=0.28u
X109 a_7386_212# JK_FF_mag_3.nand3_mag_2.OUT VSS.t66 VSS.t65 nfet_03v3 ad=0.172p pd=1.18u as=0.29p ps=2.2u w=0.66u l=0.28u
X110 JK_FF_mag_1.nand3_mag_2.OUT VDD.t101 VDD.t103 VDD.t102 pfet_03v3 ad=0.208p pd=1.32u as=0.352p ps=2.48u w=0.8u l=0.28u
X111 VDD Q0.t16 JK_FF_mag_2.nand3_mag_2.OUT VDD.t0 pfet_03v3 ad=0.208p pd=1.32u as=0.208p ps=1.32u w=0.8u l=0.28u
X112 a_11738_2752# and2_mag_0.OUT a_11578_2752# VDD.t44 pfet_03v3 ad=0.624p pd=2.92u as=0.624p ps=2.92u w=2.4u l=0.28u
X113 JK_FF_mag_1.nand3_mag_1.OUT JK_FF_mag_1.nand3_mag_1.IN1 VDD.t222 VDD.t221 pfet_03v3 ad=0.352p pd=2.48u as=0.208p ps=1.32u w=0.8u l=0.28u
X114 VDD Q2.t9 and2_mag_0.GF_INV_MAG_0.IN VDD.t155 pfet_03v3 ad=0.352p pd=2.48u as=0.208p ps=1.32u w=0.8u l=0.28u
X115 VDD Q3.t6 JK_FF_mag_2.J.t2 VDD.t142 pfet_03v3 ad=0.352p pd=2.48u as=0.208p ps=1.32u w=0.8u l=0.28u
X116 JK_FF_mag_0.nand2_mag_3.IN1 Q0.t17 VSS.t1 VSS.t0 nfet_03v3 ad=0.152p pd=1.64u as=0.152p ps=1.64u w=0.22u l=0.28u
X117 VDD RST.t6 JK_FF_mag_3.nand3_mag_1.OUT VDD.t200 pfet_03v3 ad=0.208p pd=1.32u as=0.208p ps=1.32u w=0.8u l=0.28u
X118 Q3 JK_FF_mag_2.J.t5 a_11537_1353# VSS.t37 nfet_03v3 ad=0.194p pd=1.76u as=0.114p ps=0.96u w=0.44u l=0.28u
X119 a_11578_2752# nor_3_mag_0.IN3 VDD.t117 VDD.t116 pfet_03v3 ad=0.624p pd=2.92u as=1.06p ps=5.68u w=2.4u l=0.28u
X120 a_10409_1353# JK_FF_mag_0.nand3_mag_0.OUT VSS.t102 VSS.t101 nfet_03v3 ad=0.114p pd=0.96u as=0.194p ps=1.76u w=0.44u l=0.28u
X121 and2_mag_0.GF_INV_MAG_0.IN Q1.t11 VDD.t184 VDD.t183 pfet_03v3 ad=0.208p pd=1.32u as=0.352p ps=2.48u w=0.8u l=0.28u
X122 Q0 JK_FF_mag_1.Qb a_2486_1353# VSS.t3 nfet_03v3 ad=0.194p pd=1.76u as=0.114p ps=0.96u w=0.44u l=0.28u
X123 JK_FF_mag_3.nand3_mag_2.OUT VDD.t98 VDD.t100 VDD.t99 pfet_03v3 ad=0.208p pd=1.32u as=0.352p ps=2.48u w=0.8u l=0.28u
X124 VDD Q1.t12 JK_FF_mag_3.nand3_mag_0.OUT VDD.t180 pfet_03v3 ad=0.208p pd=1.32u as=0.208p ps=1.32u w=0.8u l=0.28u
X125 JK_FF_mag_3.Qb Q2.t10 a_8674_256# VSS.t24 nfet_03v3 ad=0.194p pd=1.76u as=0.114p ps=0.96u w=0.44u l=0.28u
X126 a_628_212# VDD.t230 VSS.t72 VSS.t71 nfet_03v3 ad=0.172p pd=1.18u as=0.29p ps=2.2u w=0.66u l=0.28u
X127 JK_FF_mag_0.nand2_mag_1.IN2 JK_FF_mag_0.nand2_mag_3.IN1 a_10973_1353# VSS.t131 nfet_03v3 ad=0.194p pd=1.76u as=0.114p ps=0.96u w=0.44u l=0.28u
X128 VDD JK_FF_mag_3.nand3_mag_1.OUT JK_FF_mag_3.nand3_mag_1.IN1 VDD.t45 pfet_03v3 ad=0.352p pd=2.48u as=0.208p ps=1.32u w=0.8u l=0.28u
X129 JK_FF_mag_3.nand2_mag_1.IN2 JK_FF_mag_3.nand3_mag_1.IN1 VDD.t126 VDD.t125 pfet_03v3 ad=0.208p pd=1.32u as=0.352p ps=2.48u w=0.8u l=0.28u
X130 a_2486_1353# JK_FF_mag_1.nand2_mag_1.IN2 VSS.t8 VSS.t7 nfet_03v3 ad=0.114p pd=0.96u as=0.194p ps=1.76u w=0.44u l=0.28u
X131 a_11691_256# JK_FF_mag_0.nand2_mag_4.IN2 VSS.t80 VSS.t79 nfet_03v3 ad=0.114p pd=0.96u as=0.194p ps=1.76u w=0.44u l=0.28u
X132 a_3805_212# Q0.t18 a_3645_212# VSS.t130 nfet_03v3 ad=0.172p pd=1.18u as=0.172p ps=1.18u w=0.66u l=0.28u
X133 JK_FF_mag_3.nand3_mag_0.OUT VDD.t95 VDD.t97 VDD.t96 pfet_03v3 ad=0.208p pd=1.32u as=0.352p ps=2.48u w=0.8u l=0.28u
X134 VDD JK_FF_mag_3.Qb Q2.t1 VDD.t192 pfet_03v3 ad=0.352p pd=2.48u as=0.208p ps=1.32u w=0.8u l=0.28u
X135 Q3 JK_FF_mag_0.nand2_mag_1.IN2 VDD.t141 VDD.t140 pfet_03v3 ad=0.208p pd=1.32u as=0.352p ps=2.48u w=0.8u l=0.28u
X136 JK_FF_mag_1.nand3_mag_1.OUT JK_FF_mag_1.nand3_mag_1.IN1 a_1512_212# VSS.t137 nfet_03v3 ad=0.29p pd=2.2u as=0.172p ps=1.18u w=0.66u l=0.28u
X137 JK_FF_mag_0.nand3_mag_1.OUT JK_FF_mag_0.nand3_mag_2.OUT VDD.t32 VDD.t31 pfet_03v3 ad=0.208p pd=1.32u as=0.352p ps=2.48u w=0.8u l=0.28u
X138 JK_FF_mag_3.nand3_mag_1.IN1 JK_FF_mag_3.nand3_mag_0.OUT VDD.t168 VDD.t167 pfet_03v3 ad=0.208p pd=1.32u as=0.352p ps=2.48u w=0.8u l=0.28u
X139 Vdiv10 Q3.t7 VSS.t93 VSS.t92 nfet_03v3 ad=0.152p pd=1.64u as=86.8f ps=0.92u w=0.22u l=0.28u
X140 a_7546_212# RST.t7 a_7386_212# VSS.t128 nfet_03v3 ad=0.172p pd=1.18u as=0.172p ps=1.18u w=0.66u l=0.28u
X141 JK_FF_mag_3.nand2_mag_3.IN1 Q1.t13 VSS.t118 VSS.t117 nfet_03v3 ad=0.152p pd=1.64u as=0.152p ps=1.64u w=0.22u l=0.28u
X142 a_8542_2450# Q2.t11 VSS.t26 VSS.t25 nfet_03v3 ad=0.114p pd=0.96u as=0.194p ps=1.76u w=0.44u l=0.28u
X143 a_11127_256# JK_FF_mag_0.nand3_mag_1.OUT VSS.t46 VSS.t45 nfet_03v3 ad=0.114p pd=0.96u as=0.194p ps=1.76u w=0.44u l=0.28u
X144 a_6662_212# VDD.t231 VSS.t70 VSS.t69 nfet_03v3 ad=0.172p pd=1.18u as=0.29p ps=2.2u w=0.66u l=0.28u
X145 a_2640_256# JK_FF_mag_1.nand2_mag_4.IN2 VSS.t110 VSS.t109 nfet_03v3 ad=0.114p pd=0.96u as=0.194p ps=1.76u w=0.44u l=0.28u
X146 nor_3_mag_0.IN3 Buffer_delayed_mag_0.Inverter_delayed_mag_0.IN VDD.t113 VDD.t112 pfet_03v3 ad=0.352p pd=2.48u as=0.352p ps=2.48u w=0.8u l=1u
X147 VDD JK_FF_mag_3.nand2_mag_3.IN1 JK_FF_mag_3.nand2_mag_4.IN2 VDD.t121 pfet_03v3 ad=0.352p pd=2.48u as=0.208p ps=1.32u w=0.8u l=0.28u
X148 VDD Q0.t19 JK_FF_mag_2.nand3_mag_0.OUT VDD.t205 pfet_03v3 ad=0.208p pd=1.32u as=0.208p ps=1.32u w=0.8u l=0.28u
X149 JK_FF_mag_1.nand3_mag_1.OUT JK_FF_mag_1.nand3_mag_2.OUT VDD.t9 VDD.t8 pfet_03v3 ad=0.208p pd=1.32u as=0.352p ps=2.48u w=0.8u l=0.28u
X150 and2_mag_1.GF_INV_MAG_0.IN Q2.t12 a_9510_2450# VSS.t61 nfet_03v3 ad=0.194p pd=1.76u as=0.114p ps=0.96u w=0.44u l=0.28u
X151 VDD JK_FF_mag_2.nand3_mag_1.OUT JK_FF_mag_2.nand3_mag_1.IN1 VDD.t61 pfet_03v3 ad=0.352p pd=2.48u as=0.208p ps=1.32u w=0.8u l=0.28u
X152 a_10403_212# JK_FF_mag_0.nand3_mag_2.OUT VSS.t28 VSS.t27 nfet_03v3 ad=0.172p pd=1.18u as=0.29p ps=2.2u w=0.66u l=0.28u
X153 VDD JK_FF_mag_2.Qb Q1.t1 VDD.t158 pfet_03v3 ad=0.352p pd=2.48u as=0.208p ps=1.32u w=0.8u l=0.28u
X154 JK_FF_mag_0.nand3_mag_0.OUT JK_FF_mag_2.J.t6 a_9845_1309# VSS.t38 nfet_03v3 ad=0.29p pd=2.2u as=0.172p ps=1.18u w=0.66u l=0.28u
X155 JK_FF_mag_2.nand3_mag_1.IN1 JK_FF_mag_2.nand3_mag_0.OUT VDD.t56 VDD.t55 pfet_03v3 ad=0.208p pd=1.32u as=0.352p ps=2.48u w=0.8u l=0.28u
X156 VDD Q1.t14 JK_FF_mag_3.nand3_mag_2.OUT VDD.t177 pfet_03v3 ad=0.208p pd=1.32u as=0.208p ps=1.32u w=0.8u l=0.28u
X157 and2_mag_0.OUT and2_mag_0.GF_INV_MAG_0.IN VSS.t141 VSS.t140 nfet_03v3 ad=0.152p pd=1.64u as=0.152p ps=1.64u w=0.22u l=0.28u
X158 JK_FF_mag_1.nand2_mag_3.IN1 CLK.t4 VSS.t104 VSS.t103 nfet_03v3 ad=0.152p pd=1.64u as=0.152p ps=1.64u w=0.22u l=0.28u
X159 JK_FF_mag_2.nand3_mag_1.OUT JK_FF_mag_2.nand3_mag_1.IN1 VDD.t23 VDD.t22 pfet_03v3 ad=0.352p pd=2.48u as=0.208p ps=1.32u w=0.8u l=0.28u
X160 JK_FF_mag_1.nand2_mag_4.IN2 JK_FF_mag_1.nand3_mag_1.OUT VDD.t34 VDD.t33 pfet_03v3 ad=0.208p pd=1.32u as=0.352p ps=2.48u w=0.8u l=0.28u
X161 a_3651_1309# JK_FF_mag_2.J.t7 VSS.t51 VSS.t50 nfet_03v3 ad=0.172p pd=1.18u as=0.29p ps=2.2u w=0.66u l=0.28u
X162 JK_FF_mag_2.J Q3.t8 a_11691_256# VSS.t6 nfet_03v3 ad=0.194p pd=1.76u as=0.114p ps=0.96u w=0.44u l=0.28u
X163 a_1352_212# JK_FF_mag_1.nand3_mag_2.OUT VSS.t5 VSS.t4 nfet_03v3 ad=0.172p pd=1.18u as=0.29p ps=2.2u w=0.66u l=0.28u
X164 JK_FF_mag_0.nand3_mag_2.OUT VDD.t92 VDD.t94 VDD.t93 pfet_03v3 ad=0.208p pd=1.32u as=0.352p ps=2.48u w=0.8u l=0.28u
X165 Vdiv10 nor_3_mag_0.IN3 VSS.t86 VSS.t85 nfet_03v3 ad=86.8f pd=0.92u as=0.152p ps=1.64u w=0.22u l=0.28u
X166 JK_FF_mag_3.nand3_mag_1.IN1 JK_FF_mag_3.nand3_mag_1.OUT a_7392_1353# VSS.t42 nfet_03v3 ad=0.194p pd=1.76u as=0.114p ps=0.96u w=0.44u l=0.28u
X167 a_6822_212# Q1.t15 a_6662_212# VSS.t116 nfet_03v3 ad=0.172p pd=1.18u as=0.172p ps=1.18u w=0.66u l=0.28u
X168 a_7956_1353# JK_FF_mag_3.nand3_mag_1.IN1 VSS.t90 VSS.t89 nfet_03v3 ad=0.114p pd=0.96u as=0.194p ps=1.76u w=0.44u l=0.28u
X169 a_11537_1353# JK_FF_mag_0.nand2_mag_1.IN2 VSS.t100 VSS.t99 nfet_03v3 ad=0.114p pd=0.96u as=0.194p ps=1.76u w=0.44u l=0.28u
X170 VDD Q1.t16 and2_mag_2.GF_INV_MAG_0.IN VDD.t174 pfet_03v3 ad=0.352p pd=2.48u as=0.208p ps=1.32u w=0.8u l=0.28u
X171 JK_FF_mag_2.nand3_mag_1.OUT JK_FF_mag_2.nand3_mag_1.IN1 a_4529_212# VSS.t18 nfet_03v3 ad=0.29p pd=2.2u as=0.172p ps=1.18u w=0.66u l=0.28u
X172 Q2 JK_FF_mag_3.Qb a_8520_1353# VSS.t125 nfet_03v3 ad=0.194p pd=1.76u as=0.114p ps=0.96u w=0.44u l=0.28u
X173 a_7392_1353# JK_FF_mag_3.nand3_mag_0.OUT VSS.t114 VSS.t113 nfet_03v3 ad=0.114p pd=0.96u as=0.194p ps=1.76u w=0.44u l=0.28u
X174 VDD JK_FF_mag_0.nand2_mag_3.IN1 JK_FF_mag_0.nand2_mag_4.IN2 VDD.t208 pfet_03v3 ad=0.352p pd=2.48u as=0.208p ps=1.32u w=0.8u l=0.28u
X175 VDD Q0.t20 JK_FF_mag_1.Qb VDD.t72 pfet_03v3 ad=0.352p pd=2.48u as=0.208p ps=1.32u w=0.8u l=0.28u
X176 Buffer_delayed_mag_0.Inverter_delayed_mag_0.IN and2_mag_1.OUT VDD.t217 VDD.t216 pfet_03v3 ad=0.352p pd=2.48u as=0.352p ps=2.48u w=0.8u l=1u
X177 a_9679_212# VDD.t232 VSS.t68 VSS.t67 nfet_03v3 ad=0.172p pd=1.18u as=0.29p ps=2.2u w=0.66u l=0.28u
X178 JK_FF_mag_3.nand2_mag_4.IN2 JK_FF_mag_3.nand2_mag_3.IN1 a_8110_256# VSS.t87 nfet_03v3 ad=0.194p pd=1.76u as=0.114p ps=0.96u w=0.44u l=0.28u
X179 VDD JK_FF_mag_3.nand2_mag_3.IN1 JK_FF_mag_3.nand2_mag_1.IN2 VDD.t118 pfet_03v3 ad=0.352p pd=2.48u as=0.208p ps=1.32u w=0.8u l=0.28u
X180 Q2 JK_FF_mag_3.nand2_mag_1.IN2 VDD.t139 VDD.t138 pfet_03v3 ad=0.208p pd=1.32u as=0.352p ps=2.48u w=0.8u l=0.28u
X181 JK_FF_mag_1.nand3_mag_0.OUT JK_FF_mag_1.Qb a_794_1309# VSS.t2 nfet_03v3 ad=0.29p pd=2.2u as=0.172p ps=1.18u w=0.66u l=0.28u
X182 VDD CLK.t5 JK_FF_mag_1.nand3_mag_2.OUT VDD.t218 pfet_03v3 ad=0.208p pd=1.32u as=0.208p ps=1.32u w=0.8u l=0.28u
X183 JK_FF_mag_2.nand3_mag_1.IN1 JK_FF_mag_2.nand3_mag_1.OUT a_4375_1353# VSS.t54 nfet_03v3 ad=0.194p pd=1.76u as=0.114p ps=0.96u w=0.44u l=0.28u
X184 JK_FF_mag_2.Qb JK_FF_mag_2.nand2_mag_4.IN2 VDD.t89 VDD.t88 pfet_03v3 ad=0.208p pd=1.32u as=0.352p ps=2.48u w=0.8u l=0.28u
X185 VDD JK_FF_mag_1.nand2_mag_3.IN1 JK_FF_mag_1.nand2_mag_4.IN2 VDD.t66 pfet_03v3 ad=0.352p pd=2.48u as=0.208p ps=1.32u w=0.8u l=0.28u
X186 and2_mag_1.OUT and2_mag_1.GF_INV_MAG_0.IN VSS.t134 VSS.t133 nfet_03v3 ad=0.152p pd=1.64u as=0.152p ps=1.64u w=0.22u l=0.28u
X187 JK_FF_mag_0.nand3_mag_0.OUT JK_FF_mag_2.J.t8 VDD.t58 VDD.t57 pfet_03v3 ad=0.352p pd=2.48u as=0.208p ps=1.32u w=0.8u l=0.28u
R0 Q1.n8 Q1.t4 36.935
R1 Q1.n40 Q1.t10 36.935
R2 Q1.n0 Q1.t15 36.935
R3 Q1.n10 Q1.t7 31.528
R4 Q1.n23 Q1.t9 31.528
R5 Q1.n28 Q1.t11 30.9379
R6 Q1.n15 Q1.t8 25.5364
R7 Q1.n28 Q1.t6 21.6422
R8 Q1.n8 Q1.t3 18.1962
R9 Q1.n40 Q1.t12 18.1962
R10 Q1.n0 Q1.t14 18.1962
R11 Q1.n10 Q1.t5 15.3826
R12 Q1.n23 Q1.t16 15.3826
R13 Q1.n15 Q1.t13 14.0749
R14 Q1.n6 Q1.n3 7.09905
R15 Q1.n11 Q1.n10 6.86134
R16 Q1.n24 Q1.n23 5.62394
R17 Q1.n12 Q1.n9 5.01116
R18 Q1.n44 Q1.n43 4.5005
R19 Q1.n39 Q1.n38 4.5005
R20 Q1.n34 Q1.n33 3.81183
R21 Q1.n6 Q1.n5 3.25085
R22 Q1.n33 Q1.n26 3.06735
R23 Q1.n5 Q1.t1 2.2755
R24 Q1.n5 Q1.n4 2.2755
R25 Q1.n13 Q1.n7 2.2505
R26 Q1.n19 Q1.n18 2.24235
R27 Q1.n32 Q1.n31 2.24151
R28 Q1.n26 Q1.n25 2.2414
R29 Q1.n9 Q1.n8 2.13398
R30 Q1.n29 Q1.n28 2.12245
R31 Q1.n1 Q1.n0 2.12175
R32 Q1.n41 Q1.n40 2.12084
R33 Q1.n46 Q1.n44 1.71062
R34 Q1.n35 Q1.n34 1.54045
R35 Q1.n13 Q1.n12 1.5289
R36 Q1.n47 Q1.n46 1.49778
R37 Q1.n16 Q1.n15 1.42706
R38 Q1.n12 Q1.n11 1.12056
R39 Q1.n20 Q1.n19 0.962512
R40 Q1.n33 Q1.n32 0.961174
R41 Q1.n14 Q1 0.644908
R42 Q1.n17 Q1 0.1605
R43 Q1.n7 Q1.n6 0.0919062
R44 Q1.n11 Q1 0.0857632
R45 Q1.n9 Q1 0.0810725
R46 Q1.n30 Q1 0.0749415
R47 Q1.n7 Q1 0.073625
R48 Q1.n38 Q1 0.0473512
R49 Q1 Q1.n48 0.0473512
R50 Q1.n22 Q1 0.0460172
R51 Q1.n48 Q1.n47 0.0361897
R52 Q1.n44 Q1.n39 0.0328437
R53 Q1 Q1.n13 0.0322045
R54 Q1.n18 Q1.n17 0.03175
R55 Q1.n25 Q1.n22 0.028431
R56 Q1.n19 Q1.n14 0.0246174
R57 Q1.n26 Q1.n21 0.0234177
R58 Q1.n32 Q1.n27 0.0215128
R59 Q1.n31 Q1.n30 0.02075
R60 Q1.n20 Q1.n2 0.0168541
R61 Q1.n35 Q1.n20 0.0145871
R62 Q1.n46 Q1.n45 0.0131772
R63 Q1.n25 Q1.n24 0.0129138
R64 Q1.n31 Q1.n29 0.0095
R65 Q1.n43 Q1.n42 0.00515517
R66 Q1.n47 Q1.n1 0.00515517
R67 Q1.n39 Q1.n36 0.00471875
R68 Q1.n36 Q1.n35 0.00287694
R69 Q1.n38 Q1.n37 0.00205172
R70 Q1.n18 Q1.n16 0.00175
R71 Q1.n42 Q1.n41 0.00140935
R72 VDD.n207 VDD.n206 11185.2
R73 VDD.n154 VDD.n153 11185.2
R74 VDD.n131 VDD.t112 1105.93
R75 VDD.t69 VDD.t10 961.905
R76 VDD.t6 VDD.t26 961.905
R77 VDD.t135 VDD.t59 961.905
R78 VDD.t161 VDD.t55 961.905
R79 VDD.t118 VDD.t138 961.905
R80 VDD.t167 VDD.t195 961.905
R81 VDD.t66 VDD.t163 765.152
R82 VDD.t221 VDD.t33 765.152
R83 VDD.t172 VDD.t8 765.152
R84 VDD.t140 VDD.t211 765.152
R85 VDD.t52 VDD.t40 765.152
R86 VDD.t150 VDD.t57 765.152
R87 VDD.t208 VDD.t110 765.152
R88 VDD.t38 VDD.t50 765.152
R89 VDD.t78 VDD.t31 765.152
R90 VDD.t121 VDD.t12 765.152
R91 VDD.t127 VDD.t48 765.152
R92 VDD.t20 VDD.t90 765.152
R93 VDD.t132 VDD.t88 765.152
R94 VDD.t22 VDD.t64 765.152
R95 VDD.t190 VDD.t42 765.152
R96 VDD.n128 VDD.t116 747.159
R97 VDD.n206 VDD.t223 676.191
R98 VDD.t24 VDD.n182 676.191
R99 VDD.n153 VDD.t125 676.191
R100 VDD.t214 VDD.t216 645.307
R101 VDD.n207 VDD.t105 485.714
R102 VDD.n154 VDD.t96 485.714
R103 VDD VDD.n84 429.187
R104 VDD VDD.n137 427.092
R105 VDD.n143 VDD 427.092
R106 VDD.t203 VDD.n207 426.44
R107 VDD.t16 VDD.n196 426.44
R108 VDD.t185 VDD.n154 426.44
R109 VDD VDD.n132 425.019
R110 VDD.n84 VDD.t165 386.365
R111 VDD.n143 VDD.t18 386.365
R112 VDD.n137 VDD.t80 386.365
R113 VDD.t169 VDD.t6 380.952
R114 VDD.t205 VDD.t161 380.952
R115 VDD.t195 VDD.t180 380.952
R116 VDD.t155 VDD.n143 378.788
R117 VDD.n137 VDD.t174 378.788
R118 VDD.n132 VDD.t85 378.788
R119 VDD.t197 VDD.t221 303.031
R120 VDD.t218 VDD.t172 303.031
R121 VDD.t57 VDD.t129 303.031
R122 VDD.t82 VDD.t38 303.031
R123 VDD.t75 VDD.t78 303.031
R124 VDD.t200 VDD.t127 303.031
R125 VDD.t177 VDD.t20 303.031
R126 VDD.t28 VDD.t22 303.031
R127 VDD.t0 VDD.t190 303.031
R128 VDD.n206 VDD.t35 285.714
R129 VDD.n182 VDD.t61 285.714
R130 VDD.n153 VDD.t45 285.714
R131 VDD.n198 VDD.t3 242.857
R132 VDD.n200 VDD.t69 242.857
R133 VDD.t35 VDD.n202 242.857
R134 VDD.n205 VDD.t169 242.857
R135 VDD.n181 VDD.t158 242.857
R136 VDD.n183 VDD.t135 242.857
R137 VDD.n192 VDD.t61 242.857
R138 VDD.n193 VDD.t205 242.857
R139 VDD.n111 VDD.t192 242.857
R140 VDD.n112 VDD.t118 242.857
R141 VDD.t45 VDD.n152 242.857
R142 VDD.t180 VDD.n151 242.857
R143 VDD.n221 VDD.t72 193.183
R144 VDD.n223 VDD.t66 193.183
R145 VDD.n226 VDD.t197 193.183
R146 VDD.n229 VDD.t218 193.183
R147 VDD.n71 VDD.t147 193.183
R148 VDD.n77 VDD.t211 193.183
R149 VDD.n78 VDD.t52 193.183
R150 VDD.n83 VDD.t129 193.183
R151 VDD.n17 VDD.t142 193.183
R152 VDD.n19 VDD.t208 193.183
R153 VDD.n22 VDD.t82 193.183
R154 VDD.n25 VDD.t75 193.183
R155 VDD.n87 VDD.t152 193.183
R156 VDD.n89 VDD.t121 193.183
R157 VDD.n92 VDD.t200 193.183
R158 VDD.n95 VDD.t177 193.183
R159 VDD.n144 VDD.t155 193.183
R160 VDD.n142 VDD.t174 193.183
R161 VDD.n136 VDD.t85 193.183
R162 VDD.n157 VDD.t187 193.183
R163 VDD.n159 VDD.t132 193.183
R164 VDD.n162 VDD.t28 193.183
R165 VDD.n165 VDD.t0 193.183
R166 VDD.t44 VDD.t124 175.631
R167 VDD.t116 VDD.n127 153.678
R168 VDD.t10 VDD.n198 138.095
R169 VDD.t223 VDD.n200 138.095
R170 VDD.t26 VDD.n202 138.095
R171 VDD.t105 VDD.n205 138.095
R172 VDD.t59 VDD.n181 138.095
R173 VDD.n183 VDD.t24 138.095
R174 VDD.t55 VDD.n192 138.095
R175 VDD.n193 VDD.t145 138.095
R176 VDD.t138 VDD.n111 138.095
R177 VDD.n112 VDD.t125 138.095
R178 VDD.n152 VDD.t167 138.095
R179 VDD.n151 VDD.t96 138.095
R180 VDD.t163 VDD.n221 109.849
R181 VDD.t33 VDD.n223 109.849
R182 VDD.t8 VDD.n226 109.849
R183 VDD.n229 VDD.t102 109.849
R184 VDD.n71 VDD.t140 109.849
R185 VDD.t40 VDD.n77 109.849
R186 VDD.n78 VDD.t150 109.849
R187 VDD.t165 VDD.n83 109.849
R188 VDD.t110 VDD.n17 109.849
R189 VDD.t50 VDD.n19 109.849
R190 VDD.t31 VDD.n22 109.849
R191 VDD.n25 VDD.t93 109.849
R192 VDD.t12 VDD.n87 109.849
R193 VDD.t48 VDD.n89 109.849
R194 VDD.t90 VDD.n92 109.849
R195 VDD.n95 VDD.t99 109.849
R196 VDD.n144 VDD.t183 109.849
R197 VDD.t18 VDD.n142 109.849
R198 VDD.t80 VDD.n136 109.849
R199 VDD.t88 VDD.n157 109.849
R200 VDD.t64 VDD.n159 109.849
R201 VDD.t42 VDD.n162 109.849
R202 VDD.n165 VDD.t108 109.849
R203 VDD.n84 VDD.t14 59.702
R204 VDD.n143 VDD.t225 59.4064
R205 VDD.n137 VDD.t114 59.4064
R206 VDD.n132 VDD.t214 59.1138
R207 VDD.n128 VDD.t112 55.0852
R208 VDD.t216 VDD.n131 55.0852
R209 VDD.n26 VDD.t92 30.9379
R210 VDD.n28 VDD.t107 30.9379
R211 VDD.n49 VDD.t95 30.721
R212 VDD.n39 VDD.t104 30.7203
R213 VDD.n46 VDD.t98 30.3459
R214 VDD.n34 VDD.t101 30.0062
R215 VDD.n46 VDD.t231 24.8618
R216 VDD.n26 VDD.t232 24.5101
R217 VDD.n28 VDD.t227 24.5101
R218 VDD.n49 VDD.t229 24.4816
R219 VDD.n39 VDD.t228 24.4814
R220 VDD.n36 VDD.t230 24.4392
R221 VDD.n127 VDD.t44 21.9544
R222 VDD VDD.t203 10.5649
R223 VDD VDD.t16 10.5649
R224 VDD VDD.t185 10.5649
R225 VDD.n36 VDD.n35 8.0005
R226 VDD.n56 VDD.n55 6.39748
R227 VDD.n127 VDD 6.30126
R228 VDD.n209 VDD.n205 6.3005
R229 VDD.n212 VDD.n202 6.3005
R230 VDD.n215 VDD.n200 6.3005
R231 VDD.n218 VDD.n198 6.3005
R232 VDD.n230 VDD.n229 6.3005
R233 VDD.n233 VDD.n226 6.3005