* NGSPICE file created from CLK_div_96_mag_flat.ext - technology: gf180mcuC

.subckt CLK_div_96_mag_flat VDD VSS Vdiv96 RST CLK
X0 JK_FF_mag_3.nand3_mag_1.OUT JK_FF_mag_3.nand3_mag_2.OUT VDD.t263 VDD.t262 pfet_03v3 ad=0.208p pd=1.32u as=0.352p ps=2.48u w=0.8u l=0.28u
X1 JK_FF_mag_2.QB JK_FF_mag_2.nand2_mag_4.IN2 VDD.t171 VDD.t170 pfet_03v3 ad=0.208p pd=1.32u as=0.352p ps=2.48u w=0.8u l=0.28u
X2 VDD JK_FF_mag_2.nand2_mag_3.IN1 JK_FF_mag_2.nand2_mag_1.IN2 VDD.t356 pfet_03v3 ad=0.352p pd=2.48u as=0.208p ps=1.32u w=0.8u l=0.28u
X3 CLK_div_3_mag_0.JK_FF_mag_1.nand2_mag_1.IN2 CLK_div_3_mag_0.JK_FF_mag_1.nand3_mag_1.IN1 VDD.t362 VDD.t361 pfet_03v3 ad=0.208p pd=1.32u as=0.352p ps=2.48u w=0.8u l=0.28u
X4 VDD JK_FF_mag_0.Q JK_FF_mag_2.nand3_mag_0.OUT VDD.t293 pfet_03v3 ad=0.208p pd=1.32u as=0.208p ps=1.32u w=0.8u l=0.28u
X5 CLK_div_3_mag_0.JK_FF_mag_1.nand3_mag_1.OUT CLK_div_3_mag_0.JK_FF_mag_1.nand3_mag_1.IN1 VDD.t360 VDD.t359 pfet_03v3 ad=0.352p pd=2.48u as=0.208p ps=1.32u w=0.8u l=0.28u
X6 VDD JK_FF_mag_3.nand2_mag_3.IN1 JK_FF_mag_3.nand2_mag_1.IN2 VDD.t191 pfet_03v3 ad=0.352p pd=2.48u as=0.208p ps=1.32u w=0.8u l=0.28u
X7 VDD JK_FF_mag_3.Q CLK_div_3_mag_0.JK_FF_mag_1.nand3_mag_2.OUT VDD.t76 pfet_03v3 ad=0.208p pd=1.32u as=0.208p ps=1.32u w=0.8u l=0.28u
X8 JK_FF_mag_4.nand3_mag_0.OUT CLK.t0 VDD.t299 VDD.t298 pfet_03v3 ad=0.208p pd=1.32u as=0.208p ps=1.32u w=0.8u l=0.28u
X9 VDD CLK_div_3_mag_0.Q1 CLK_div_3_mag_0.JK_FF_mag_1.QB VDD.t47 pfet_03v3 ad=0.352p pd=2.48u as=0.208p ps=1.32u w=0.8u l=0.28u
X10 JK_FF_mag_4.nand2_mag_1.IN2 JK_FF_mag_4.nand2_mag_3.IN1 VDD.t221 VDD.t220 pfet_03v3 ad=0.208p pd=1.32u as=0.352p ps=2.48u w=0.8u l=0.28u
X11 VDD JK_FF_mag_5.QB JK_FF_mag_5.nand3_mag_0.OUT VDD.t314 pfet_03v3 ad=0.208p pd=1.32u as=0.352p ps=2.48u w=0.8u l=0.28u
X12 a_3934_1448# VDD.t368 VSS.t85 VSS.t84 nfet_03v3 ad=0.172p pd=1.18u as=0.29p ps=2.2u w=0.66u l=0.28u
X13 CLK_div_3_mag_0.or_2_mag_0.IN2 CLK_div_3_mag_0.and2_mag_0.GF_INV_MAG_0.IN VSS.t144 VSS.t143 nfet_03v3 ad=0.152p pd=1.64u as=0.152p ps=1.64u w=0.22u l=0.28u
X14 a_1426_417# JK_FF_mag_0.nand3_mag_2.OUT VSS.t39 VSS.t38 nfet_03v3 ad=0.172p pd=1.18u as=0.29p ps=2.2u w=0.66u l=0.28u
X15 JK_FF_mag_0.nand3_mag_1.IN1 JK_FF_mag_0.nand3_mag_1.OUT a_1432_1558# VSS.t5 nfet_03v3 ad=0.194p pd=1.76u as=0.114p ps=0.96u w=0.44u l=0.28u
X16 CLK_div_3_mag_0.JK_FF_mag_1.nand3_mag_1.OUT CLK_div_3_mag_0.JK_FF_mag_1.nand3_mag_1.IN1 a_4697_2604# VSS.t228 nfet_03v3 ad=0.29p pd=2.2u as=0.172p ps=1.18u w=0.66u l=0.28u
X17 JK_FF_mag_2.nand3_mag_0.OUT JK_FF_mag_2.QB a_4094_1448# VSS.t213 nfet_03v3 ad=0.29p pd=2.2u as=0.172p ps=1.18u w=0.66u l=0.28u
X18 JK_FF_mag_3.nand2_mag_4.IN2 JK_FF_mag_3.nand3_mag_1.OUT VDD.t20 VDD.t19 pfet_03v3 ad=0.208p pd=1.32u as=0.352p ps=2.48u w=0.8u l=0.28u
X19 VDD JK_FF_mag_4.QB JK_FF_mag_4.nand3_mag_0.OUT VDD.t157 pfet_03v3 ad=0.208p pd=1.32u as=0.352p ps=2.48u w=0.8u l=0.28u
X20 a_3973_2604# JK_FF_mag_3.Q a_3813_2604# VSS.t55 nfet_03v3 ad=0.172p pd=1.18u as=0.172p ps=1.18u w=0.66u l=0.28u
X21 JK_FF_mag_2.nand3_mag_1.OUT JK_FF_mag_2.nand3_mag_1.IN1 VDD.t24 VDD.t23 pfet_03v3 ad=0.352p pd=2.48u as=0.208p ps=1.32u w=0.8u l=0.28u
X22 JK_FF_mag_0.nand2_mag_1.IN2 JK_FF_mag_0.nand3_mag_1.IN1 VDD.t39 VDD.t38 pfet_03v3 ad=0.208p pd=1.32u as=0.352p ps=2.48u w=0.8u l=0.28u
X23 a_7745_351# JK_FF_mag_3.nand3_mag_2.OUT VSS.t174 VSS.t173 nfet_03v3 ad=0.172p pd=1.18u as=0.29p ps=2.2u w=0.66u l=0.28u
X24 a_5418_5266# CLK.t1 a_5258_5266# VSS.t13 nfet_03v3 ad=0.172p pd=1.18u as=0.172p ps=1.18u w=0.66u l=0.28u
X25 a_4094_1448# JK_FF_mag_0.Q a_3934_1448# VSS.t188 nfet_03v3 ad=0.172p pd=1.18u as=0.172p ps=1.18u w=0.66u l=0.28u
X26 JK_FF_mag_4.nand2_mag_4.IN2 JK_FF_mag_4.nand2_mag_3.IN1 VDD.t219 VDD.t218 pfet_03v3 ad=0.208p pd=1.32u as=0.352p ps=2.48u w=0.8u l=0.28u
X27 a_4130_5266# JK_FF_mag_4.nand2_mag_3.IN1 JK_FF_mag_4.nand2_mag_1.IN2 VSS.t140 nfet_03v3 ad=0.114p pd=0.96u as=0.194p ps=1.76u w=0.44u l=0.28u
X28 a_2147_3060# JK_FF_mag_5.QB JK_FF_mag_5.nand3_mag_0.OUT VSS.t205 nfet_03v3 ad=0.172p pd=1.18u as=0.29p ps=2.2u w=0.66u l=0.28u
X29 CLK_div_3_mag_0.JK_FF_mag_1.K CLK_div_3_mag_0.Q0 a_8842_2648# VSS.t120 nfet_03v3 ad=0.194p pd=1.76u as=0.114p ps=0.96u w=0.44u l=0.28u
X30 VDD JK_FF_mag_0.QB JK_FF_mag_0.Q VDD.t174 pfet_03v3 ad=0.352p pd=2.48u as=0.208p ps=1.32u w=0.8u l=0.28u
X31 JK_FF_mag_0.nand3_mag_1.IN1 JK_FF_mag_0.nand3_mag_0.OUT VDD.t32 VDD.t31 pfet_03v3 ad=0.208p pd=1.32u as=0.352p ps=2.48u w=0.8u l=0.28u
X32 JK_FF_mag_4.nand3_mag_1.OUT RST.t0 VDD.t169 VDD.t168 pfet_03v3 ad=0.208p pd=1.32u as=0.208p ps=1.32u w=0.8u l=0.28u
X33 JK_FF_mag_4.QB JK_FF_mag_4.Q.t3 VDD.t274 VDD.t273 pfet_03v3 ad=0.208p pd=1.32u as=0.352p ps=2.48u w=0.8u l=0.28u
X34 JK_FF_mag_4.nand3_mag_2.OUT CLK.t2 VDD.t250 VDD.t249 pfet_03v3 ad=0.208p pd=1.32u as=0.208p ps=1.32u w=0.8u l=0.28u
X35 a_5258_5266# JK_FF_mag_4.QB JK_FF_mag_4.nand3_mag_0.OUT VSS.t107 nfet_03v3 ad=0.172p pd=1.18u as=0.29p ps=2.2u w=0.66u l=0.28u
X36 JK_FF_mag_0.nand3_mag_0.OUT JK_FF_mag_0.QB VDD.t173 VDD.t172 pfet_03v3 ad=0.352p pd=2.48u as=0.208p ps=1.32u w=0.8u l=0.28u
X37 VDD JK_FF_mag_0.nand2_mag_3.IN1 JK_FF_mag_0.nand2_mag_1.IN2 VDD.t28 pfet_03v3 ad=0.352p pd=2.48u as=0.208p ps=1.32u w=0.8u l=0.28u
X38 JK_FF_mag_3.nand3_mag_2.OUT VDD.t118 VDD.t120 VDD.t119 pfet_03v3 ad=0.208p pd=1.32u as=0.352p ps=2.48u w=0.8u l=0.28u
X39 JK_FF_mag_0.Q JK_FF_mag_0.nand2_mag_1.IN2 VDD.t53 VDD.t52 pfet_03v3 ad=0.208p pd=1.32u as=0.352p ps=2.48u w=0.8u l=0.28u
X40 JK_FF_mag_3.QB JK_FF_mag_3.Q a_9033_395# VSS.t54 nfet_03v3 ad=0.194p pd=1.76u as=0.114p ps=0.96u w=0.44u l=0.28u
X41 VSS CLK.t3 JK_FF_mag_4.nand2_mag_3.IN1 VSS.t10 nfet_03v3 ad=0.152p pd=1.64u as=0.152p ps=1.64u w=0.22u l=0.28u
X42 VDD JK_FF_mag_2.Q JK_FF_mag_2.QB VDD.t207 pfet_03v3 ad=0.352p pd=2.48u as=0.208p ps=1.32u w=0.8u l=0.28u
X43 a_3976_6363# JK_FF_mag_4.nand2_mag_3.IN1 JK_FF_mag_4.nand2_mag_4.IN2 VSS.t139 nfet_03v3 ad=0.114p pd=0.96u as=0.194p ps=1.76u w=0.44u l=0.28u
X44 VDD JK_FF_mag_4.Q.t4 JK_FF_mag_4.nand3_mag_2.OUT VDD.t275 pfet_03v3 ad=0.208p pd=1.32u as=0.352p ps=2.48u w=0.8u l=0.28u
X45 VDD JK_FF_mag_5.Q.t3 JK_FF_mag_0.nand3_mag_0.OUT VDD.t130 pfet_03v3 ad=0.208p pd=1.32u as=0.208p ps=1.32u w=0.8u l=0.28u
X46 JK_FF_mag_2.nand3_mag_1.OUT JK_FF_mag_2.nand3_mag_1.IN1 a_4812_351# VSS.t22 nfet_03v3 ad=0.29p pd=2.2u as=0.172p ps=1.18u w=0.66u l=0.28u
X47 VDD JK_FF_mag_0.Q JK_FF_mag_0.QB VDD.t290 pfet_03v3 ad=0.352p pd=2.48u as=0.208p ps=1.32u w=0.8u l=0.28u
X48 a_4700_6363# RST.t1 a_4540_6363# VSS.t111 nfet_03v3 ad=0.172p pd=1.18u as=0.172p ps=1.18u w=0.66u l=0.28u
X49 a_5107_3745# CLK_div_3_mag_0.JK_FF_mag_1.nand3_mag_1.IN1 VSS.t227 VSS.t226 nfet_03v3 ad=0.114p pd=0.96u as=0.194p ps=1.76u w=0.44u l=0.28u
X50 a_3412_6363# JK_FF_mag_4.Q.t5 JK_FF_mag_4.QB VSS.t191 nfet_03v3 ad=0.114p pd=0.96u as=0.194p ps=1.76u w=0.44u l=0.28u
X51 a_5424_6363# CLK.t4 a_5264_6363# VSS.t9 nfet_03v3 ad=0.172p pd=1.18u as=0.172p ps=1.18u w=0.66u l=0.28u
X52 JK_FF_mag_0.nand2_mag_3.IN1 JK_FF_mag_5.Q.t4 VDD.t134 VDD.t133 pfet_03v3 ad=0.352p pd=2.48u as=0.352p ps=2.48u w=0.8u l=0.28u
X53 CLK_div_3_mag_0.JK_FF_mag_1.QB CLK_div_3_mag_0.Q1 a_5825_2648# VSS.t37 nfet_03v3 ad=0.194p pd=1.76u as=0.114p ps=0.96u w=0.44u l=0.28u
X54 CLK_div_3_mag_0.JK_FF_mag_0.nand3_mag_2.OUT VDD.t115 VDD.t117 VDD.t116 pfet_03v3 ad=0.208p pd=1.32u as=0.352p ps=2.48u w=0.8u l=0.28u
X55 VDD CLK_div_3_mag_0.JK_FF_mag_0.nand2_mag_3.IN1 CLK_div_3_mag_0.JK_FF_mag_0.nand2_mag_4.IN2 VDD.t234 pfet_03v3 ad=0.352p pd=2.48u as=0.208p ps=1.32u w=0.8u l=0.28u
X56 VDD JK_FF_mag_2.QB JK_FF_mag_2.Q VDD.t328 pfet_03v3 ad=0.352p pd=2.48u as=0.208p ps=1.32u w=0.8u l=0.28u
X57 a_5940_395# JK_FF_mag_2.nand2_mag_4.IN2 VSS.t113 VSS.t112 nfet_03v3 ad=0.114p pd=0.96u as=0.194p ps=1.76u w=0.44u l=0.28u
X58 CLK_div_3_mag_0.JK_FF_mag_0.nand3_mag_2.OUT CLK_div_3_mag_0.Q0 VDD.t182 VDD.t181 pfet_03v3 ad=0.352p pd=2.48u as=0.208p ps=1.32u w=0.8u l=0.28u
X59 CLK_div_3_mag_0.JK_FF_mag_1.K CLK_div_3_mag_0.JK_FF_mag_0.nand2_mag_4.IN2 VDD.t248 VDD.t247 pfet_03v3 ad=0.208p pd=1.32u as=0.352p ps=2.48u w=0.8u l=0.28u
X60 VDD JK_FF_mag_5.Q.t5 JK_FF_mag_0.nand3_mag_2.OUT VDD.t317 pfet_03v3 ad=0.208p pd=1.32u as=0.208p ps=1.32u w=0.8u l=0.28u
X61 CLK_div_3_mag_0.JK_FF_mag_0.nand3_mag_1.OUT CLK_div_3_mag_0.JK_FF_mag_0.nand3_mag_2.OUT VDD.t55 VDD.t54 pfet_03v3 ad=0.208p pd=1.32u as=0.352p ps=2.48u w=0.8u l=0.28u
X62 JK_FF_mag_3.nand3_mag_0.OUT VDD.t112 VDD.t114 VDD.t113 pfet_03v3 ad=0.208p pd=1.32u as=0.352p ps=2.48u w=0.8u l=0.28u
X63 a_7021_351# VDD.t369 VSS.t83 VSS.t82 nfet_03v3 ad=0.172p pd=1.18u as=0.29p ps=2.2u w=0.66u l=0.28u
X64 VDD JK_FF_mag_3.nand2_mag_3.IN1 JK_FF_mag_3.nand2_mag_4.IN2 VDD.t188 pfet_03v3 ad=0.352p pd=2.48u as=0.208p ps=1.32u w=0.8u l=0.28u
X65 JK_FF_mag_2.nand3_mag_1.OUT JK_FF_mag_2.nand3_mag_2.OUT VDD.t223 VDD.t222 pfet_03v3 ad=0.208p pd=1.32u as=0.352p ps=2.48u w=0.8u l=0.28u
X66 JK_FF_mag_0.nand3_mag_0.OUT JK_FF_mag_0.QB a_868_1514# VSS.t115 nfet_03v3 ad=0.29p pd=2.2u as=0.172p ps=1.18u w=0.66u l=0.28u
X67 VDD JK_FF_mag_3.QB JK_FF_mag_3.Q VDD.t270 pfet_03v3 ad=0.352p pd=2.48u as=0.208p ps=1.32u w=0.8u l=0.28u
X68 a_5264_6363# JK_FF_mag_4.Q.t6 JK_FF_mag_4.nand3_mag_2.OUT VSS.t192 nfet_03v3 ad=0.172p pd=1.18u as=0.29p ps=2.2u w=0.66u l=0.28u
X69 VDD JK_FF_mag_0.nand2_mag_3.IN1 JK_FF_mag_0.nand2_mag_4.IN2 VDD.t25 pfet_03v3 ad=0.352p pd=2.48u as=0.208p ps=1.32u w=0.8u l=0.28u
X70 JK_FF_mag_3.nand3_mag_0.OUT JK_FF_mag_3.QB VDD.t269 VDD.t268 pfet_03v3 ad=0.352p pd=2.48u as=0.208p ps=1.32u w=0.8u l=0.28u
X71 JK_FF_mag_3.nand3_mag_1.IN1 JK_FF_mag_3.nand3_mag_0.OUT VDD.t217 VDD.t216 pfet_03v3 ad=0.208p pd=1.32u as=0.352p ps=2.48u w=0.8u l=0.28u
X72 CLK_div_3_mag_0.JK_FF_mag_0.nand2_mag_4.IN2 CLK_div_3_mag_0.JK_FF_mag_0.nand3_mag_1.OUT VDD.t141 VDD.t140 pfet_03v3 ad=0.208p pd=1.32u as=0.352p ps=2.48u w=0.8u l=0.28u
X73 a_6830_2604# VDD.t370 VSS.t81 VSS.t80 nfet_03v3 ad=0.172p pd=1.18u as=0.29p ps=2.2u w=0.66u l=0.28u
X74 JK_FF_mag_2.Q JK_FF_mag_2.nand2_mag_1.IN2 VDD.t297 VDD.t296 pfet_03v3 ad=0.208p pd=1.32u as=0.352p ps=2.48u w=0.8u l=0.28u
X75 VDD VDD.t108 JK_FF_mag_5.nand3_mag_2.OUT VDD.t109 pfet_03v3 ad=0.352p pd=2.48u as=0.208p ps=1.32u w=0.8u l=0.28u
X76 CLK_div_3_mag_0.JK_FF_mag_0.nand3_mag_2.OUT CLK_div_3_mag_0.Q0 a_6990_2604# VSS.t119 nfet_03v3 ad=0.29p pd=2.2u as=0.172p ps=1.18u w=0.66u l=0.28u
X77 a_7554_2604# CLK_div_3_mag_0.JK_FF_mag_0.nand3_mag_2.OUT VSS.t43 VSS.t42 nfet_03v3 ad=0.172p pd=1.18u as=0.29p ps=2.2u w=0.66u l=0.28u
X78 a_868_1514# JK_FF_mag_5.Q.t6 a_708_1514# VSS.t206 nfet_03v3 ad=0.172p pd=1.18u as=0.172p ps=1.18u w=0.66u l=0.28u
X79 JK_FF_mag_3.Q JK_FF_mag_3.nand2_mag_1.IN2 VDD.t143 VDD.t142 pfet_03v3 ad=0.208p pd=1.32u as=0.352p ps=2.48u w=0.8u l=0.28u
X80 VDD JK_FF_mag_2.Q JK_FF_mag_3.nand3_mag_0.OUT VDD.t204 pfet_03v3 ad=0.208p pd=1.32u as=0.208p ps=1.32u w=0.8u l=0.28u
X81 a_2714_461# JK_FF_mag_0.nand2_mag_4.IN2 VSS.t149 VSS.t148 nfet_03v3 ad=0.114p pd=0.96u as=0.194p ps=1.76u w=0.44u l=0.28u
X82 VDD JK_FF_mag_3.Q CLK_div_3_mag_0.JK_FF_mag_0.nand3_mag_0.OUT VDD.t73 pfet_03v3 ad=0.208p pd=1.32u as=0.208p ps=1.32u w=0.8u l=0.28u
X83 JK_FF_mag_2.nand2_mag_1.IN2 JK_FF_mag_2.nand3_mag_1.IN1 VDD.t22 VDD.t21 pfet_03v3 ad=0.208p pd=1.32u as=0.352p ps=2.48u w=0.8u l=0.28u
X84 a_8469_395# JK_FF_mag_3.nand3_mag_1.OUT VSS.t19 VSS.t18 nfet_03v3 ad=0.114p pd=0.96u as=0.194p ps=1.76u w=0.44u l=0.28u
X85 VDD CLK_div_3_mag_0.JK_FF_mag_0.nand3_mag_1.OUT CLK_div_3_mag_0.JK_FF_mag_0.nand3_mag_1.IN1 VDD.t137 pfet_03v3 ad=0.352p pd=2.48u as=0.208p ps=1.32u w=0.8u l=0.28u
X86 VDD RST.t2 CLK_div_3_mag_0.JK_FF_mag_1.nand3_mag_1.OUT VDD.t165 pfet_03v3 ad=0.208p pd=1.32u as=0.208p ps=1.32u w=0.8u l=0.28u
X87 JK_FF_mag_3.nand2_mag_1.IN2 JK_FF_mag_3.nand3_mag_1.IN1 VDD.t154 VDD.t153 pfet_03v3 ad=0.208p pd=1.32u as=0.352p ps=2.48u w=0.8u l=0.28u
X88 CLK_div_3_mag_0.JK_FF_mag_0.nand2_mag_3.IN1 JK_FF_mag_3.Q VDD.t72 VDD.t71 pfet_03v3 ad=0.352p pd=2.48u as=0.352p ps=2.48u w=0.8u l=0.28u
X89 VDD JK_FF_mag_2.Q JK_FF_mag_3.nand3_mag_2.OUT VDD.t201 pfet_03v3 ad=0.208p pd=1.32u as=0.208p ps=1.32u w=0.8u l=0.28u
X90 JK_FF_mag_2.nand2_mag_4.IN2 JK_FF_mag_2.nand3_mag_1.OUT VDD.t339 VDD.t338 pfet_03v3 ad=0.208p pd=1.32u as=0.352p ps=2.48u w=0.8u l=0.28u
X91 JK_FF_mag_2.nand2_mag_3.IN1 JK_FF_mag_0.Q VSS.t187 VSS.t186 nfet_03v3 ad=0.152p pd=1.64u as=0.152p ps=1.64u w=0.22u l=0.28u
X92 CLK_div_3_mag_0.JK_FF_mag_1.nand3_mag_2.OUT VDD.t105 VDD.t107 VDD.t106 pfet_03v3 ad=0.208p pd=1.32u as=0.352p ps=2.48u w=0.8u l=0.28u
X93 VDD CLK_div_3_mag_0.JK_FF_mag_1.nand2_mag_3.IN1 CLK_div_3_mag_0.JK_FF_mag_1.nand2_mag_4.IN2 VDD.t127 pfet_03v3 ad=0.352p pd=2.48u as=0.208p ps=1.32u w=0.8u l=0.28u
X94 a_862_417# JK_FF_mag_5.Q.t7 a_702_417# VSS.t14 nfet_03v3 ad=0.172p pd=1.18u as=0.172p ps=1.18u w=0.66u l=0.28u
X95 a_1996_1558# JK_FF_mag_0.nand3_mag_1.IN1 VSS.t32 VSS.t31 nfet_03v3 ad=0.114p pd=0.96u as=0.194p ps=1.76u w=0.44u l=0.28u
X96 CLK_div_3_mag_0.JK_FF_mag_1.nand3_mag_2.OUT CLK_div_3_mag_0.Q1 VDD.t46 VDD.t45 pfet_03v3 ad=0.352p pd=2.48u as=0.208p ps=1.32u w=0.8u l=0.28u
X97 CLK_div_3_mag_0.JK_FF_mag_1.QB CLK_div_3_mag_0.JK_FF_mag_1.nand2_mag_4.IN2 VDD.t238 VDD.t237 pfet_03v3 ad=0.208p pd=1.32u as=0.352p ps=2.48u w=0.8u l=0.28u
X98 a_4652_351# JK_FF_mag_2.nand3_mag_2.OUT VSS.t142 VSS.t141 nfet_03v3 ad=0.172p pd=1.18u as=0.29p ps=2.2u w=0.66u l=0.28u
X99 a_7027_1448# VDD.t372 VSS.t79 VSS.t78 nfet_03v3 ad=0.172p pd=1.18u as=0.29p ps=2.2u w=0.66u l=0.28u
X100 JK_FF_mag_3.nand2_mag_3.IN1 JK_FF_mag_2.Q VSS.t132 VSS.t131 nfet_03v3 ad=0.152p pd=1.64u as=0.152p ps=1.64u w=0.22u l=0.28u
X101 VSS VDD.t373 a_2313_4157# VSS.t75 nfet_03v3 ad=0.29p pd=2.2u as=0.172p ps=1.18u w=0.66u l=0.28u
X102 CLK_div_3_mag_0.JK_FF_mag_0.nand3_mag_0.OUT CLK_div_3_mag_0.JK_FF_mag_1.K.t3 VDD.t161 VDD.t160 pfet_03v3 ad=0.352p pd=2.48u as=0.208p ps=1.32u w=0.8u l=0.28u
X103 a_6996_3701# JK_FF_mag_3.Q a_6836_3701# VSS.t53 nfet_03v3 ad=0.172p pd=1.18u as=0.172p ps=1.18u w=0.66u l=0.28u
X104 a_2150_461# JK_FF_mag_0.nand3_mag_1.OUT VSS.t4 VSS.t3 nfet_03v3 ad=0.114p pd=0.96u as=0.194p ps=1.76u w=0.44u l=0.28u
X105 JK_FF_mag_3.nand3_mag_0.OUT JK_FF_mag_3.QB a_7187_1448# VSS.t179 nfet_03v3 ad=0.29p pd=2.2u as=0.172p ps=1.18u w=0.66u l=0.28u
X106 JK_FF_mag_0.Q JK_FF_mag_0.QB a_2560_1558# VSS.t114 nfet_03v3 ad=0.194p pd=1.76u as=0.114p ps=0.96u w=0.44u l=0.28u
X107 CLK_div_3_mag_0.JK_FF_mag_0.nand3_mag_1.IN1 CLK_div_3_mag_0.JK_FF_mag_0.nand3_mag_0.OUT VDD.t136 VDD.t135 pfet_03v3 ad=0.208p pd=1.32u as=0.352p ps=2.48u w=0.8u l=0.28u
X108 a_1432_1558# JK_FF_mag_0.nand3_mag_0.OUT VSS.t26 VSS.t25 nfet_03v3 ad=0.114p pd=0.96u as=0.194p ps=1.76u w=0.44u l=0.28u
X109 a_4697_2604# RST.t3 a_4537_2604# VSS.t222 nfet_03v3 ad=0.172p pd=1.18u as=0.172p ps=1.18u w=0.66u l=0.28u
X110 VDD CLK_div_3_mag_0.JK_FF_mag_0.nand2_mag_3.IN1 CLK_div_3_mag_0.JK_FF_mag_0.nand2_mag_1.IN2 VDD.t231 pfet_03v3 ad=0.352p pd=2.48u as=0.208p ps=1.32u w=0.8u l=0.28u
X111 CLK_div_3_mag_0.JK_FF_mag_1.nand2_mag_4.IN2 CLK_div_3_mag_0.JK_FF_mag_1.nand3_mag_1.OUT VDD.t282 VDD.t281 pfet_03v3 ad=0.208p pd=1.32u as=0.352p ps=2.48u w=0.8u l=0.28u
X112 a_3813_2604# VDD.t374 VSS.t74 VSS.t73 nfet_03v3 ad=0.172p pd=1.18u as=0.29p ps=2.2u w=0.66u l=0.28u
X113 JK_FF_mag_0.nand2_mag_1.IN2 JK_FF_mag_0.nand2_mag_3.IN1 a_1996_1558# VSS.t24 nfet_03v3 ad=0.194p pd=1.76u as=0.114p ps=0.96u w=0.44u l=0.28u
X114 CLK_div_3_mag_0.JK_FF_mag_1.nand3_mag_2.OUT CLK_div_3_mag_0.Q1 a_3973_2604# VSS.t36 nfet_03v3 ad=0.29p pd=2.2u as=0.172p ps=1.18u w=0.66u l=0.28u
X115 JK_FF_mag_2.nand3_mag_2.OUT VDD.t102 VDD.t104 VDD.t103 pfet_03v3 ad=0.208p pd=1.32u as=0.352p ps=2.48u w=0.8u l=0.28u
X116 a_7187_1448# JK_FF_mag_2.Q a_7027_1448# VSS.t130 nfet_03v3 ad=0.172p pd=1.18u as=0.172p ps=1.18u w=0.66u l=0.28u
X117 a_2560_1558# JK_FF_mag_0.nand2_mag_1.IN2 VSS.t41 VSS.t40 nfet_03v3 ad=0.114p pd=0.96u as=0.194p ps=1.76u w=0.44u l=0.28u
X118 CLK_div_3_mag_0.JK_FF_mag_0.nand3_mag_0.OUT CLK_div_3_mag_0.JK_FF_mag_1.K.t4 a_6996_3701# VSS.t223 nfet_03v3 ad=0.29p pd=2.2u as=0.172p ps=1.18u w=0.66u l=0.28u
X119 VDD RST.t4 JK_FF_mag_0.nand3_mag_1.OUT VDD.t347 pfet_03v3 ad=0.208p pd=1.32u as=0.208p ps=1.32u w=0.8u l=0.28u
X120 VDD JK_FF_mag_3.Q CLK_div_3_mag_0.JK_FF_mag_1.nand3_mag_0.OUT VDD.t68 pfet_03v3 ad=0.208p pd=1.32u as=0.208p ps=1.32u w=0.8u l=0.28u
X121 CLK_div_3_mag_0.JK_FF_mag_0.nand2_mag_4.IN2 CLK_div_3_mag_0.JK_FF_mag_0.nand2_mag_3.IN1 a_8278_2648# VSS.t151 nfet_03v3 ad=0.194p pd=1.76u as=0.114p ps=0.96u w=0.44u l=0.28u
X122 JK_FF_mag_2.QB JK_FF_mag_2.Q a_5940_395# VSS.t129 nfet_03v3 ad=0.194p pd=1.76u as=0.114p ps=0.96u w=0.44u l=0.28u
X123 a_8842_2648# CLK_div_3_mag_0.JK_FF_mag_0.nand2_mag_4.IN2 VSS.t163 VSS.t162 nfet_03v3 ad=0.114p pd=0.96u as=0.194p ps=1.76u w=0.44u l=0.28u
X124 JK_FF_mag_0.nand3_mag_2.OUT JK_FF_mag_0.Q VDD.t289 VDD.t288 pfet_03v3 ad=0.352p pd=2.48u as=0.208p ps=1.32u w=0.8u l=0.28u
X125 VDD JK_FF_mag_4.nand3_mag_1.OUT JK_FF_mag_4.nand2_mag_4.IN2 VDD.t365 pfet_03v3 ad=0.352p pd=2.48u as=0.208p ps=1.32u w=0.8u l=0.28u
X126 VDD CLK_div_3_mag_0.JK_FF_mag_1.nand3_mag_1.OUT CLK_div_3_mag_0.JK_FF_mag_1.nand3_mag_1.IN1 VDD.t278 pfet_03v3 ad=0.352p pd=2.48u as=0.208p ps=1.32u w=0.8u l=0.28u
X127 a_7181_351# JK_FF_mag_2.Q a_7021_351# VSS.t128 nfet_03v3 ad=0.172p pd=1.18u as=0.172p ps=1.18u w=0.66u l=0.28u
X128 VDD JK_FF_mag_4.nand3_mag_1.IN1 JK_FF_mag_4.nand3_mag_1.OUT VDD.t259 pfet_03v3 ad=0.208p pd=1.32u as=0.352p ps=2.48u w=0.8u l=0.28u
X129 CLK_div_3_mag_0.JK_FF_mag_1.nand2_mag_3.IN1 JK_FF_mag_3.Q VDD.t67 VDD.t66 pfet_03v3 ad=0.352p pd=2.48u as=0.352p ps=2.48u w=0.8u l=0.28u
X130 VDD RST.t5 JK_FF_mag_3.nand3_mag_1.OUT VDD.t121 pfet_03v3 ad=0.208p pd=1.32u as=0.208p ps=1.32u w=0.8u l=0.28u
X131 a_8278_2648# CLK_div_3_mag_0.JK_FF_mag_0.nand3_mag_1.OUT VSS.t94 VSS.t93 nfet_03v3 ad=0.114p pd=0.96u as=0.194p ps=1.76u w=0.44u l=0.28u
X132 a_3979_3701# JK_FF_mag_3.Q a_3819_3701# VSS.t52 nfet_03v3 ad=0.172p pd=1.18u as=0.172p ps=1.18u w=0.66u l=0.28u
X133 VDD JK_FF_mag_5.nand3_mag_0.OUT JK_FF_mag_5.nand3_mag_1.IN1 VDD.t241 pfet_03v3 ad=0.352p pd=2.48u as=0.208p ps=1.32u w=0.8u l=0.28u
X134 JK_FF_mag_3.nand2_mag_4.IN2 JK_FF_mag_3.nand2_mag_3.IN1 a_8469_395# VSS.t125 nfet_03v3 ad=0.194p pd=1.76u as=0.114p ps=0.96u w=0.44u l=0.28u
X135 JK_FF_mag_2.nand3_mag_1.IN1 JK_FF_mag_2.nand3_mag_1.OUT a_4658_1492# VSS.t219 nfet_03v3 ad=0.194p pd=1.76u as=0.114p ps=0.96u w=0.44u l=0.28u
X136 VSS JK_FF_mag_4.nand3_mag_1.OUT a_3976_6363# VSS.t230 nfet_03v3 ad=0.194p pd=1.76u as=0.114p ps=0.96u w=0.44u l=0.28u
X137 VDD VDD.t98 JK_FF_mag_5.nand3_mag_0.OUT VDD.t99 pfet_03v3 ad=0.352p pd=2.48u as=0.208p ps=1.32u w=0.8u l=0.28u
X138 JK_FF_mag_0.nand3_mag_0.OUT VDD.t95 VDD.t97 VDD.t96 pfet_03v3 ad=0.208p pd=1.32u as=0.352p ps=2.48u w=0.8u l=0.28u
X139 a_3928_351# VDD.t376 VSS.t72 VSS.t71 nfet_03v3 ad=0.172p pd=1.18u as=0.29p ps=2.2u w=0.66u l=0.28u
X140 a_4540_6363# JK_FF_mag_4.nand3_mag_1.IN1 JK_FF_mag_4.nand3_mag_1.OUT VSS.t172 nfet_03v3 ad=0.172p pd=1.18u as=0.29p ps=2.2u w=0.66u l=0.28u
X141 CLK_div_3_mag_0.JK_FF_mag_0.nand3_mag_1.IN1 CLK_div_3_mag_0.JK_FF_mag_0.nand3_mag_1.OUT a_7560_3745# VSS.t92 nfet_03v3 ad=0.194p pd=1.76u as=0.114p ps=0.96u w=0.44u l=0.28u
X142 VDD JK_FF_mag_4.Q.t7 JK_FF_mag_5.nand2_mag_3.IN1 VDD.t300 pfet_03v3 ad=0.352p pd=2.48u as=0.352p ps=2.48u w=0.8u l=0.28u
X143 a_1586_417# RST.t6 a_1426_417# VSS.t86 nfet_03v3 ad=0.172p pd=1.18u as=0.172p ps=1.18u w=0.66u l=0.28u
X144 JK_FF_mag_3.nand3_mag_2.OUT JK_FF_mag_3.Q VDD.t65 VDD.t64 pfet_03v3 ad=0.352p pd=2.48u as=0.208p ps=1.32u w=0.8u l=0.28u
X145 VDD JK_FF_mag_2.nand2_mag_3.IN1 JK_FF_mag_2.nand2_mag_4.IN2 VDD.t353 pfet_03v3 ad=0.352p pd=2.48u as=0.208p ps=1.32u w=0.8u l=0.28u
X146 VDD JK_FF_mag_5.nand3_mag_1.IN1 JK_FF_mag_5.nand2_mag_1.IN2 VDD.t309 pfet_03v3 ad=0.352p pd=2.48u as=0.208p ps=1.32u w=0.8u l=0.28u
X147 JK_FF_mag_5.nand3_mag_1.IN1 JK_FF_mag_5.nand3_mag_1.OUT VDD.t150 VDD.t149 pfet_03v3 ad=0.208p pd=1.32u as=0.352p ps=2.48u w=0.8u l=0.28u
X148 JK_FF_mag_3.nand3_mag_1.IN1 JK_FF_mag_3.nand3_mag_1.OUT a_7751_1492# VSS.t17 nfet_03v3 ad=0.194p pd=1.76u as=0.114p ps=0.96u w=0.44u l=0.28u
X149 JK_FF_mag_0.nand3_mag_2.OUT JK_FF_mag_0.Q a_862_417# VSS.t185 nfet_03v3 ad=0.29p pd=2.2u as=0.172p ps=1.18u w=0.66u l=0.28u
X150 CLK_div_3_mag_0.JK_FF_mag_1.nand2_mag_4.IN2 CLK_div_3_mag_0.JK_FF_mag_1.nand2_mag_3.IN1 a_5261_2648# VSS.t88 nfet_03v3 ad=0.194p pd=1.76u as=0.114p ps=0.96u w=0.44u l=0.28u
X151 a_5825_2648# CLK_div_3_mag_0.JK_FF_mag_1.nand2_mag_4.IN2 VSS.t153 VSS.t152 nfet_03v3 ad=0.114p pd=0.96u as=0.194p ps=1.76u w=0.44u l=0.28u
X152 a_4658_1492# JK_FF_mag_2.nand3_mag_0.OUT VSS.t122 VSS.t121 nfet_03v3 ad=0.114p pd=0.96u as=0.194p ps=1.76u w=0.44u l=0.28u
X153 VDD JK_FF_mag_5.nand3_mag_2.OUT JK_FF_mag_5.nand3_mag_1.OUT VDD.t244 pfet_03v3 ad=0.352p pd=2.48u as=0.208p ps=1.32u w=0.8u l=0.28u
X154 VSS JK_FF_mag_5.nand3_mag_0.OUT a_1583_3060# VSS.t156 nfet_03v3 ad=0.194p pd=1.76u as=0.114p ps=0.96u w=0.44u l=0.28u
X155 JK_FF_mag_0.nand2_mag_3.IN1 JK_FF_mag_5.Q.t8 VSS.t16 VSS.t15 nfet_03v3 ad=0.152p pd=1.64u as=0.152p ps=1.64u w=0.22u l=0.28u
X156 a_7560_3745# CLK_div_3_mag_0.JK_FF_mag_0.nand3_mag_0.OUT VSS.t90 VSS.t89 nfet_03v3 ad=0.114p pd=0.96u as=0.194p ps=1.76u w=0.44u l=0.28u
X157 a_7905_351# RST.t7 a_7745_351# VSS.t133 nfet_03v3 ad=0.172p pd=1.18u as=0.172p ps=1.18u w=0.66u l=0.28u
X158 JK_FF_mag_2.nand2_mag_1.IN2 JK_FF_mag_2.nand2_mag_3.IN1 a_5222_1492# VSS.t225 nfet_03v3 ad=0.194p pd=1.76u as=0.114p ps=0.96u w=0.44u l=0.28u
X159 CLK_div_3_mag_0.JK_FF_mag_0.nand2_mag_1.IN2 CLK_div_3_mag_0.JK_FF_mag_0.nand2_mag_3.IN1 a_8124_3745# VSS.t150 nfet_03v3 ad=0.194p pd=1.76u as=0.114p ps=0.96u w=0.44u l=0.28u
X160 VSS VDD.t377 a_2307_3060# VSS.t68 nfet_03v3 ad=0.29p pd=2.2u as=0.172p ps=1.18u w=0.66u l=0.28u
X161 VDD JK_FF_mag_5.nand2_mag_1.IN2 JK_FF_mag_5.Q.t0 VDD.t226 pfet_03v3 ad=0.352p pd=2.48u as=0.208p ps=1.32u w=0.8u l=0.28u
X162 a_5376_395# JK_FF_mag_2.nand3_mag_1.OUT VSS.t218 VSS.t217 nfet_03v3 ad=0.114p pd=0.96u as=0.194p ps=1.76u w=0.44u l=0.28u
X163 JK_FF_mag_3.nand2_mag_1.IN2 JK_FF_mag_3.nand2_mag_3.IN1 a_8315_1492# VSS.t124 nfet_03v3 ad=0.194p pd=1.76u as=0.114p ps=0.96u w=0.44u l=0.28u
X164 VDD CLK_div_3_mag_0.Q1 CLK_div_3_mag_0.and2_mag_0.GF_INV_MAG_0.IN VDD.t42 pfet_03v3 ad=0.352p pd=2.48u as=0.208p ps=1.32u w=0.8u l=0.28u
X165 VSS JK_FF_mag_5.nand3_mag_1.IN1 a_1019_3060# VSS.t201 nfet_03v3 ad=0.194p pd=1.76u as=0.114p ps=0.96u w=0.44u l=0.28u
X166 VSS JK_FF_mag_4.Q.t8 JK_FF_mag_5.nand2_mag_3.IN1 VSS.t193 nfet_03v3 ad=0.152p pd=1.64u as=0.152p ps=1.64u w=0.22u l=0.28u
X167 a_5261_2648# CLK_div_3_mag_0.JK_FF_mag_1.nand3_mag_1.OUT VSS.t182 VSS.t181 nfet_03v3 ad=0.114p pd=0.96u as=0.194p ps=1.76u w=0.44u l=0.28u
X168 JK_FF_mag_5.nand3_mag_1.OUT RST.t8 VDD.t211 VDD.t210 pfet_03v3 ad=0.208p pd=1.32u as=0.208p ps=1.32u w=0.8u l=0.28u
X169 a_1583_3060# JK_FF_mag_5.nand3_mag_1.OUT JK_FF_mag_5.nand3_mag_1.IN1 VSS.t102 nfet_03v3 ad=0.114p pd=0.96u as=0.194p ps=1.76u w=0.44u l=0.28u
X170 VDD JK_FF_mag_0.Q JK_FF_mag_2.nand3_mag_2.OUT VDD.t285 pfet_03v3 ad=0.208p pd=1.32u as=0.208p ps=1.32u w=0.8u l=0.28u
X171 JK_FF_mag_0.nand3_mag_1.OUT JK_FF_mag_0.nand3_mag_1.IN1 VDD.t37 VDD.t36 pfet_03v3 ad=0.352p pd=2.48u as=0.208p ps=1.32u w=0.8u l=0.28u
X172 JK_FF_mag_5.nand3_mag_2.OUT JK_FF_mag_4.Q.t9 VDD.t265 VDD.t264 pfet_03v3 ad=0.208p pd=1.32u as=0.208p ps=1.32u w=0.8u l=0.28u
X173 CLK_div_3_mag_0.JK_FF_mag_0.nand2_mag_3.IN1 JK_FF_mag_3.Q VSS.t51 VSS.t50 nfet_03v3 ad=0.152p pd=1.64u as=0.152p ps=1.64u w=0.22u l=0.28u
X174 a_708_1514# VDD.t378 VSS.t67 VSS.t66 nfet_03v3 ad=0.172p pd=1.18u as=0.29p ps=2.2u w=0.66u l=0.28u
X175 VSS JK_FF_mag_5.nand3_mag_2.OUT a_1589_4157# VSS.t159 nfet_03v3 ad=0.29p pd=2.2u as=0.172p ps=1.18u w=0.66u l=0.28u
X176 JK_FF_mag_3.nand3_mag_2.OUT JK_FF_mag_3.Q a_7181_351# VSS.t49 nfet_03v3 ad=0.29p pd=2.2u as=0.172p ps=1.18u w=0.66u l=0.28u
X177 CLK_div_3_mag_0.and2_mag_0.GF_INV_MAG_0.IN JK_FF_mag_3.Q VDD.t63 VDD.t62 pfet_03v3 ad=0.208p pd=1.32u as=0.352p ps=2.48u w=0.8u l=0.28u
X178 CLK_div_3_mag_0.JK_FF_mag_0.nand3_mag_0.OUT CLK_div_3_mag_0.Q1 VDD.t41 VDD.t40 pfet_03v3 ad=0.208p pd=1.32u as=0.352p ps=2.48u w=0.8u l=0.28u
X179 VDD CLK_div_3_mag_0.JK_FF_mag_1.K.t5 CLK_div_3_mag_0.Q0 VDD.t350 pfet_03v3 ad=0.352p pd=2.48u as=0.208p ps=1.32u w=0.8u l=0.28u
X180 CLK_div_3_mag_0.JK_FF_mag_1.nand3_mag_1.IN1 CLK_div_3_mag_0.JK_FF_mag_1.nand3_mag_1.OUT a_4543_3745# VSS.t180 nfet_03v3 ad=0.194p pd=1.76u as=0.114p ps=0.96u w=0.44u l=0.28u
X181 VSS JK_FF_mag_5.nand2_mag_1.IN2 a_455_3060# VSS.t145 nfet_03v3 ad=0.194p pd=1.76u as=0.114p ps=0.96u w=0.44u l=0.28u
X182 CLK_div_3_mag_0.JK_FF_mag_1.nand3_mag_1.OUT CLK_div_3_mag_0.JK_FF_mag_1.nand3_mag_2.OUT VDD.t323 VDD.t322 pfet_03v3 ad=0.208p pd=1.32u as=0.352p ps=2.48u w=0.8u l=0.28u
X183 JK_FF_mag_3.nand3_mag_1.OUT JK_FF_mag_3.nand3_mag_1.IN1 VDD.t152 VDD.t151 pfet_03v3 ad=0.352p pd=2.48u as=0.208p ps=1.32u w=0.8u l=0.28u
X184 VDD JK_FF_mag_5.nand3_mag_1.OUT JK_FF_mag_5.nand2_mag_4.IN2 VDD.t146 pfet_03v3 ad=0.352p pd=2.48u as=0.208p ps=1.32u w=0.8u l=0.28u
X185 a_1589_4157# RST.t9 a_1429_4157# VSS.t8 nfet_03v3 ad=0.172p pd=1.18u as=0.172p ps=1.18u w=0.66u l=0.28u
X186 CLK_div_3_mag_0.or_2_mag_0.GF_INV_MAG_1.IN CLK_div_3_mag_0.Q0 a_8245_5080# VDD.t180 pfet_03v3 ad=0.704p pd=4.08u as=0.416p ps=2.12u w=1.6u l=0.28u
X187 a_2313_4157# JK_FF_mag_4.Q.t10 a_2153_4157# VSS.t175 nfet_03v3 ad=0.172p pd=1.18u as=0.172p ps=1.18u w=0.66u l=0.28u
X188 CLK_div_3_mag_0.Q0 CLK_div_3_mag_0.JK_FF_mag_0.nand2_mag_1.IN2 VDD.t321 VDD.t320 pfet_03v3 ad=0.208p pd=1.32u as=0.352p ps=2.48u w=0.8u l=0.28u
X189 a_6836_3701# CLK_div_3_mag_0.Q1 VSS.t35 VSS.t34 nfet_03v3 ad=0.172p pd=1.18u as=0.29p ps=2.2u w=0.66u l=0.28u
X190 VDD JK_FF_mag_5.nand2_mag_4.IN2 JK_FF_mag_5.QB VDD.t251 pfet_03v3 ad=0.352p pd=2.48u as=0.208p ps=1.32u w=0.8u l=0.28u
X191 JK_FF_mag_5.nand2_mag_4.IN2 JK_FF_mag_5.nand2_mag_3.IN1 VDD.t343 VDD.t342 pfet_03v3 ad=0.208p pd=1.32u as=0.352p ps=2.48u w=0.8u l=0.28u
X192 a_4537_2604# CLK_div_3_mag_0.JK_FF_mag_1.nand3_mag_2.OUT VSS.t210 VSS.t209 nfet_03v3 ad=0.172p pd=1.18u as=0.29p ps=2.2u w=0.66u l=0.28u
X193 JK_FF_mag_0.nand3_mag_1.OUT JK_FF_mag_0.nand3_mag_1.IN1 a_1586_417# VSS.t30 nfet_03v3 ad=0.29p pd=2.2u as=0.172p ps=1.18u w=0.66u l=0.28u
X194 CLK_div_3_mag_0.JK_FF_mag_0.nand2_mag_1.IN2 CLK_div_3_mag_0.JK_FF_mag_0.nand3_mag_1.IN1 VDD.t334 VDD.t333 pfet_03v3 ad=0.208p pd=1.32u as=0.352p ps=2.48u w=0.8u l=0.28u
X195 a_4088_351# JK_FF_mag_0.Q a_3928_351# VSS.t184 nfet_03v3 ad=0.172p pd=1.18u as=0.172p ps=1.18u w=0.66u l=0.28u
X196 CLK_div_3_mag_0.JK_FF_mag_0.nand3_mag_1.OUT CLK_div_3_mag_0.JK_FF_mag_0.nand3_mag_1.IN1 VDD.t332 VDD.t331 pfet_03v3 ad=0.352p pd=2.48u as=0.208p ps=1.32u w=0.8u l=0.28u
X197 VDD RST.t10 JK_FF_mag_2.nand3_mag_1.OUT VDD.t13 pfet_03v3 ad=0.208p pd=1.32u as=0.208p ps=1.32u w=0.8u l=0.28u
X198 VSS JK_FF_mag_5.nand3_mag_1.OUT a_865_4157# VSS.t99 nfet_03v3 ad=0.194p pd=1.76u as=0.114p ps=0.96u w=0.44u l=0.28u
X199 CLK_div_3_mag_0.JK_FF_mag_1.nand2_mag_3.IN1 JK_FF_mag_3.Q VSS.t48 VSS.t47 nfet_03v3 ad=0.152p pd=1.64u as=0.152p ps=1.64u w=0.22u l=0.28u
X200 CLK_div_3_mag_0.JK_FF_mag_1.nand3_mag_0.OUT CLK_div_3_mag_0.JK_FF_mag_1.K.t6 VDD.t215 VDD.t214 pfet_03v3 ad=0.208p pd=1.32u as=0.352p ps=2.48u w=0.8u l=0.28u
X201 VDD CLK_div_3_mag_0.JK_FF_mag_1.QB CLK_div_3_mag_0.Q1 VDD.t10 pfet_03v3 ad=0.352p pd=2.48u as=0.208p ps=1.32u w=0.8u l=0.28u
X202 JK_FF_mag_3.nand3_mag_1.OUT JK_FF_mag_3.nand3_mag_1.IN1 a_7905_351# VSS.t105 nfet_03v3 ad=0.29p pd=2.2u as=0.172p ps=1.18u w=0.66u l=0.28u
X203 VSS CLK_div_3_mag_0.Q0 CLK_div_3_mag_0.or_2_mag_0.GF_INV_MAG_1.IN VSS.t116 nfet_03v3 ad=0.152p pd=1.64u as=86.8f ps=0.92u w=0.22u l=0.28u
X204 VSS JK_FF_mag_5.nand2_mag_4.IN2 a_301_4157# VSS.t164 nfet_03v3 ad=0.194p pd=1.76u as=0.114p ps=0.96u w=0.44u l=0.28u
X205 CLK_div_3_mag_0.JK_FF_mag_1.nand3_mag_0.OUT CLK_div_3_mag_0.JK_FF_mag_1.QB VDD.t9 VDD.t8 pfet_03v3 ad=0.352p pd=2.48u as=0.208p ps=1.32u w=0.8u l=0.28u
X206 CLK_div_3_mag_0.JK_FF_mag_1.nand3_mag_1.IN1 CLK_div_3_mag_0.JK_FF_mag_1.nand3_mag_0.OUT VDD.t145 VDD.t144 pfet_03v3 ad=0.208p pd=1.32u as=0.352p ps=2.48u w=0.8u l=0.28u
X207 CLK_div_3_mag_0.JK_FF_mag_0.nand3_mag_1.OUT CLK_div_3_mag_0.JK_FF_mag_0.nand3_mag_1.IN1 a_7714_2604# VSS.t216 nfet_03v3 ad=0.29p pd=2.2u as=0.172p ps=1.18u w=0.66u l=0.28u
X208 VDD JK_FF_mag_4.nand2_mag_1.IN2 JK_FF_mag_4.Q.t0 VDD.t0 pfet_03v3 ad=0.352p pd=2.48u as=0.208p ps=1.32u w=0.8u l=0.28u
X209 a_865_4157# JK_FF_mag_5.nand2_mag_3.IN1 JK_FF_mag_5.nand2_mag_4.IN2 VSS.t221 nfet_03v3 ad=0.114p pd=0.96u as=0.194p ps=1.76u w=0.44u l=0.28u
X210 JK_FF_mag_2.nand2_mag_4.IN2 JK_FF_mag_2.nand2_mag_3.IN1 a_5376_395# VSS.t224 nfet_03v3 ad=0.194p pd=1.76u as=0.114p ps=0.96u w=0.44u l=0.28u
X211 JK_FF_mag_0.QB JK_FF_mag_0.Q a_2714_461# VSS.t183 nfet_03v3 ad=0.194p pd=1.76u as=0.114p ps=0.96u w=0.44u l=0.28u
X212 CLK_div_3_mag_0.and2_mag_0.GF_INV_MAG_0.IN CLK_div_3_mag_0.Q1 a_7272_4844# VSS.t33 nfet_03v3 ad=0.194p pd=1.76u as=0.114p ps=0.96u w=0.44u l=0.28u
X213 VDD CLK_div_3_mag_0.JK_FF_mag_1.nand2_mag_3.IN1 CLK_div_3_mag_0.JK_FF_mag_1.nand2_mag_1.IN2 VDD.t124 pfet_03v3 ad=0.352p pd=2.48u as=0.208p ps=1.32u w=0.8u l=0.28u
X214 JK_FF_mag_2.nand3_mag_2.OUT JK_FF_mag_2.Q VDD.t200 VDD.t199 pfet_03v3 ad=0.352p pd=2.48u as=0.208p ps=1.32u w=0.8u l=0.28u
X215 VDD JK_FF_mag_4.nand3_mag_0.OUT JK_FF_mag_4.nand3_mag_1.IN1 VDD.t33 pfet_03v3 ad=0.352p pd=2.48u as=0.208p ps=1.32u w=0.8u l=0.28u
X216 CLK_div_3_mag_0.Q1 CLK_div_3_mag_0.JK_FF_mag_1.nand2_mag_1.IN2 VDD.t255 VDD.t254 pfet_03v3 ad=0.208p pd=1.32u as=0.352p ps=2.48u w=0.8u l=0.28u
X217 a_3819_3701# CLK_div_3_mag_0.JK_FF_mag_1.K.t7 VSS.t136 VSS.t135 nfet_03v3 ad=0.172p pd=1.18u as=0.29p ps=2.2u w=0.66u l=0.28u
X218 CLK_div_3_mag_0.JK_FF_mag_1.nand3_mag_0.OUT CLK_div_3_mag_0.JK_FF_mag_1.QB a_3979_3701# VSS.t7 nfet_03v3 ad=0.29p pd=2.2u as=0.172p ps=1.18u w=0.66u l=0.28u
X219 JK_FF_mag_4.Q JK_FF_mag_4.QB VDD.t156 VDD.t155 pfet_03v3 ad=0.208p pd=1.32u as=0.352p ps=2.48u w=0.8u l=0.28u
X220 JK_FF_mag_2.Q JK_FF_mag_2.QB a_5786_1492# VSS.t212 nfet_03v3 ad=0.194p pd=1.76u as=0.114p ps=0.96u w=0.44u l=0.28u