* NGSPICE file created from CLK_div_93_mag_flat.ext - technology: gf180mcuC

.subckt CLK_div_93_mag_flat VSS Vdiv93 RST CLK VDD
X0 VDD CLK_div_31_mag_0.Q0.t3 CLK_div_31_mag_0.JK_FF_mag_3.nand3_mag_2.OUT VDD.t432 pfet_03v3 ad=0.208p pd=1.32u as=0.352p ps=2.48u w=0.8u l=0.28u
X1 VDD CLK_div_31_mag_0.JK_FF_mag_2.nand3_mag_0.OUT CLK_div_31_mag_0.JK_FF_mag_2.nand3_mag_1.IN1 VDD.t181 pfet_03v3 ad=0.352p pd=2.48u as=0.208p ps=1.32u w=0.8u l=0.28u
X2 VDD CLK_div_31_mag_0.JK_FF_mag_1.nand2_mag_3.IN1 CLK_div_31_mag_0.JK_FF_mag_1.nand2_mag_1.IN2 VDD.t144 pfet_03v3 ad=0.352p pd=2.48u as=0.208p ps=1.32u w=0.8u l=0.28u
X3 a_15342_208# CLK_div_3_mag_0.CLK a_15182_208# VSS.t212 nfet_03v3 ad=0.172p pd=1.18u as=0.172p ps=1.18u w=0.66u l=0.28u
X4 CLK_div_31_mag_0.JK_FF_mag_3.nand2_mag_4.IN2 CLK_div_31_mag_0.JK_FF_mag_3.nand2_mag_3.IN1 VDD.t104 VDD.t103 pfet_03v3 ad=0.208p pd=1.32u as=0.352p ps=2.48u w=0.8u l=0.28u
X5 CLK_div_31_mag_0.nand_5_mag_0.and_5_mag_0.and2_mag_3.IN2 CLK_div_31_mag_0.nand_5_mag_0.and_5_mag_0.and2_mag_2.GF_INV_MAG_0.IN VSS.t108 VSS.t107 nfet_03v3 ad=0.152p pd=1.64u as=0.152p ps=1.64u w=0.22u l=0.28u
X6 VDD CLK_div_31_mag_0.Q2 CLK_div_31_mag_0.JK_FF_mag_1.nand3_mag_0.OUT VDD.t136 pfet_03v3 ad=0.208p pd=1.32u as=0.208p ps=1.32u w=0.8u l=0.28u
X7 CLK_div_31_mag_0.Q3 CLK_div_31_mag_0.JK_FF_mag_1.nand2_mag_1.IN2 VDD.t140 VDD.t139 pfet_03v3 ad=0.208p pd=1.32u as=0.352p ps=2.48u w=0.8u l=0.28u
X8 VDD VDD.t75 CLK_div_31_mag_0.JK_FF_mag_2.nand3_mag_0.OUT VDD.t76 pfet_03v3 ad=0.352p pd=2.48u as=0.208p ps=1.32u w=0.8u l=0.28u
X9 CLK_div_31_mag_0.and_5_mag_0.and2_mag_2.IN2 CLK_div_31_mag_0.and_5_mag_0.and2_mag_1.GF_INV_MAG_0.IN VDD.t239 VDD.t238 pfet_03v3 ad=0.352p pd=2.48u as=0.352p ps=2.48u w=0.8u l=0.28u
X10 CLK_div_3_mag_0.JK_FF_mag_1.nand2_mag_3.IN1 CLK_div_3_mag_0.CLK VDD.t328 VDD.t327 pfet_03v3 ad=0.352p pd=2.48u as=0.352p ps=2.48u w=0.8u l=0.28u
X11 VDD CLK_div_31_mag_0.Q1.t3 CLK_div_31_mag_0.and_5_mag_0.and2_mag_0.GF_INV_MAG_0.IN VDD.t208 pfet_03v3 ad=0.352p pd=2.48u as=0.208p ps=1.32u w=0.8u l=0.28u
X12 VDD CLK_div_31_mag_0.JK_FF_mag_2.nand3_mag_1.IN1 CLK_div_31_mag_0.JK_FF_mag_2.nand2_mag_1.IN2 VDD.t444 pfet_03v3 ad=0.352p pd=2.48u as=0.208p ps=1.32u w=0.8u l=0.28u
X13 VDD CLK_div_31_mag_0.Q4.t2 CLK_div_31_mag_0.nand_5_mag_0.and_5_mag_0.and2_mag_0.GF_INV_MAG_0.IN VDD.t244 pfet_03v3 ad=0.352p pd=2.48u as=0.208p ps=1.32u w=0.8u l=0.28u
X14 CLK_div_3_mag_0.JK_FF_mag_0.nand3_mag_0.OUT CLK_div_3_mag_0.JK_FF_mag_1.K.t3 a_18365_1305# VSS.t89 nfet_03v3 ad=0.29p pd=2.2u as=0.172p ps=1.18u w=0.66u l=0.28u
X15 VDD CLK_div_31_mag_0.JK_FF_mag_0.nand2_mag_3.IN1 CLK_div_31_mag_0.JK_FF_mag_0.nand2_mag_4.IN2 VDD.t271 pfet_03v3 ad=0.352p pd=2.48u as=0.208p ps=1.32u w=0.8u l=0.28u
X16 CLK_div_31_mag_0.JK_FF_mag_4.nand3_mag_2.OUT CLK_div_31_mag_0.Q4.t3 a_7249_360# VSS.t151 nfet_03v3 ad=0.29p pd=2.2u as=0.172p ps=1.18u w=0.66u l=0.28u
X17 CLK_div_31_mag_0.JK_FF_mag_4.nand2_mag_4.IN2 CLK_div_31_mag_0.JK_FF_mag_4.nand3_mag_1.OUT VDD.t119 VDD.t118 pfet_03v3 ad=0.208p pd=1.32u as=0.352p ps=2.48u w=0.8u l=0.28u
X18 CLK_div_31_mag_0.and_5_mag_0.and2_mag_1.GF_INV_MAG_0.IN CLK_div_31_mag_0.and_5_mag_0.and2_mag_1.IN2 VDD.t356 VDD.t355 pfet_03v3 ad=0.208p pd=1.32u as=0.352p ps=2.48u w=0.8u l=0.28u
X19 CLK_div_31_mag_0.and_5_mag_0.and2_mag_2.GF_INV_MAG_0.IN CLK_div_31_mag_0.Q2 a_9404_3954# VSS.t82 nfet_03v3 ad=0.194p pd=1.76u as=0.114p ps=0.96u w=0.44u l=0.28u
X20 a_981_1449# VDD.t472 VSS.t51 VSS.t50 nfet_03v3 ad=0.172p pd=1.18u as=0.29p ps=2.2u w=0.66u l=0.28u
X21 CLK_div_31_mag_0.Q4 CLK_div_31_mag_0.JK_FF_mag_4.nand2_mag_1.IN2 VDD.t243 VDD.t242 pfet_03v3 ad=0.208p pd=1.32u as=0.352p ps=2.48u w=0.8u l=0.28u
X22 a_7819_1501# CLK_div_31_mag_0.JK_FF_mag_4.nand3_mag_0.OUT VSS.t153 VSS.t152 nfet_03v3 ad=0.114p pd=0.96u as=0.194p ps=1.76u w=0.44u l=0.28u
X23 CLK_div_3_mag_0.JK_FF_mag_1.QB CLK_div_3_mag_0.Q1 a_17194_252# VSS.t301 nfet_03v3 ad=0.194p pd=1.76u as=0.114p ps=0.96u w=0.44u l=0.28u
X24 a_4023_1458# VDD.t473 VSS.t49 VSS.t48 nfet_03v3 ad=0.172p pd=1.18u as=0.29p ps=2.2u w=0.66u l=0.28u
X25 a_18199_208# VDD.t474 VSS.t47 VSS.t46 nfet_03v3 ad=0.172p pd=1.18u as=0.29p ps=2.2u w=0.66u l=0.28u
X26 a_5428_4226# CLK_div_31_mag_0.Q0.t4 CLK_div_31_mag_0.JK_FF_mag_3.nand3_mag_2.OUT VSS.t285 nfet_03v3 ad=0.172p pd=1.18u as=0.29p ps=2.2u w=0.66u l=0.28u
X27 VSS CLK_div_31_mag_0.JK_FF_mag_2.nand3_mag_0.OUT a_1798_3130# VSS.t96 nfet_03v3 ad=0.194p pd=1.76u as=0.114p ps=0.96u w=0.44u l=0.28u
X28 a_11989_2561# CLK_div_31_mag_0.Q4.t4 VDD.t406 VDD.t405 pfet_03v3 ad=0.416p pd=2.12u as=0.704p ps=4.08u w=1.6u l=0.28u
X29 CLK_div_31_mag_0.JK_FF_mag_4.nand2_mag_1.IN2 CLK_div_31_mag_0.JK_FF_mag_4.nand2_mag_3.IN1 a_8383_1501# VSS.t126 nfet_03v3 ad=0.194p pd=1.76u as=0.114p ps=0.96u w=0.44u l=0.28u
X30 CLK_div_31_mag_0.JK_FF_mag_1.nand3_mag_1.OUT CLK_div_31_mag_0.JK_FF_mag_1.nand3_mag_1.IN1 VDD.t252 VDD.t251 pfet_03v3 ad=0.352p pd=2.48u as=0.208p ps=1.32u w=0.8u l=0.28u
X31 CLK_div_31_mag_0.Buffer_Delayed1_mag_0.Inverter_delayed_mag_6.IN CLK_div_31_mag_0.Buffer_Delayed1_mag_0.Inverter_delayed_mag_5.IN VDD.t332 VDD.t331 pfet_03v3 ad=0.352p pd=2.48u as=0.352p ps=2.48u w=0.8u l=1u
X32 a_4140_4226# CLK_div_31_mag_0.JK_FF_mag_3.nand2_mag_3.IN1 CLK_div_31_mag_0.JK_FF_mag_3.nand2_mag_4.IN2 VSS.t67 nfet_03v3 ad=0.114p pd=0.96u as=0.194p ps=1.76u w=0.44u l=0.28u
X33 RST CLK_div_31_mag_0.nand_5_mag_0.GF_INV_MAG_0.IN VDD.t30 VDD.t29 pfet_03v3 ad=0.352p pd=2.48u as=0.352p ps=2.48u w=0.8u l=0.28u
X34 CLK_div_31_mag_0.JK_FF_mag_1.nand3_mag_0.OUT CLK_div_31_mag_0.JK_FF_mag_1.QB a_4183_1458# VSS.t13 nfet_03v3 ad=0.29p pd=2.2u as=0.172p ps=1.18u w=0.66u l=0.28u
X35 a_18365_1305# CLK_div_3_mag_0.CLK a_18205_1305# VSS.t211 nfet_03v3 ad=0.172p pd=1.18u as=0.172p ps=1.18u w=0.66u l=0.28u
X36 CLK_div_3_mag_0.JK_FF_mag_0.nand3_mag_1.OUT CLK_div_3_mag_0.JK_FF_mag_0.nand3_mag_2.OUT VDD.t32 VDD.t31 pfet_03v3 ad=0.208p pd=1.32u as=0.352p ps=2.48u w=0.8u l=0.28u
X37 VSS VDD.t475 a_2522_3130# VSS.t43 nfet_03v3 ad=0.29p pd=2.2u as=0.172p ps=1.18u w=0.66u l=0.28u
X38 VSS CLK_div_31_mag_0.JK_FF_mag_3.nand2_mag_1.IN2 a_3730_3129# VSS.t258 nfet_03v3 ad=0.194p pd=1.76u as=0.114p ps=0.96u w=0.44u l=0.28u
X39 VDD CLK_div_31_mag_0.Buffer_Delayed1_mag_0.Inverter_delayed_mag_14.IN CLK_div_31_mag_0.Buffer_Delayed1_mag_0.Inverter_delayed_mag_13.IN VDD.t412 pfet_03v3 ad=0.352p pd=2.48u as=0.352p ps=2.48u w=0.8u l=1u
X40 a_16066_208# RST.t2 a_15906_208# VSS.t55 nfet_03v3 ad=0.172p pd=1.18u as=0.172p ps=1.18u w=0.66u l=0.28u
X41 CLK_div_31_mag_0.Buffer_Delayed1_mag_0.Inverter_delayed_mag_4.IN CLK_div_31_mag_0.Buffer_Delayed1_mag_0.Inverter_delayed_mag_3.IN VSS.t134 VSS.t133 nfet_03v3 ad=0.152p pd=1.64u as=0.152p ps=1.64u w=0.22u l=1u
X42 VDD VDD.t71 CLK_div_31_mag_0.JK_FF_mag_2.nand3_mag_2.OUT VDD.t72 pfet_03v3 ad=0.352p pd=2.48u as=0.208p ps=1.32u w=0.8u l=0.28u
X43 VSS CLK_div_31_mag_0.JK_FF_mag_2.nand3_mag_1.IN1 a_1234_3130# VSS.t96 nfet_03v3 ad=0.194p pd=1.76u as=0.114p ps=0.96u w=0.44u l=0.28u
X44 CLK_div_31_mag_0.nand_5_mag_0.and_5_mag_0.and2_mag_0.GF_INV_MAG_0.IN CLK_div_31_mag_0.Q4.t5 a_7506_3203# VSS.t268 nfet_03v3 ad=0.194p pd=1.76u as=0.114p ps=0.96u w=0.44u l=0.28u
X45 VDD CLK_div_3_mag_0.JK_FF_mag_1.nand2_mag_3.IN1 CLK_div_3_mag_0.JK_FF_mag_1.nand2_mag_4.IN2 VDD.t108 pfet_03v3 ad=0.352p pd=2.48u as=0.208p ps=1.32u w=0.8u l=0.28u
X46 CLK_div_31_mag_0.JK_FF_mag_2.nand3_mag_1.OUT RST.t3 VDD.t91 VDD.t90 pfet_03v3 ad=0.208p pd=1.32u as=0.208p ps=1.32u w=0.8u l=0.28u
X47 VDD CLK_div_31_mag_0.JK_FF_mag_4.QB CLK_div_31_mag_0.Q4 VDD.t163 pfet_03v3 ad=0.352p pd=2.48u as=0.208p ps=1.32u w=0.8u l=0.28u
X48 a_4183_1458# CLK_div_31_mag_0.Q2 a_4023_1458# VSS.t81 nfet_03v3 ad=0.172p pd=1.18u as=0.172p ps=1.18u w=0.66u l=0.28u
X49 a_8383_1501# CLK_div_31_mag_0.JK_FF_mag_4.nand3_mag_1.IN1 VSS.t92 VSS.t91 nfet_03v3 ad=0.114p pd=0.96u as=0.194p ps=1.76u w=0.44u l=0.28u
X50 CLK_div_31_mag_0.JK_FF_mag_4.nand3_mag_2.OUT VDD.t68 VDD.t70 VDD.t69 pfet_03v3 ad=0.208p pd=1.32u as=0.352p ps=2.48u w=0.8u l=0.28u
X51 CLK_div_31_mag_0.nand_5_mag_0.GF_INV_MAG_0.IN CLK_div_31_mag_0.nand_5_mag_0.and_5_mag_0.and2_mag_3.GF_INV_MAG_0.IN VSS.t287 VSS.t286 nfet_03v3 ad=0.152p pd=1.64u as=0.152p ps=1.64u w=0.22u l=0.28u
X52 CLK_div_31_mag_0.Q2 CLK_div_31_mag_0.JK_FF_mag_0.QB.t3 a_2833_1493# VSS.t272 nfet_03v3 ad=0.194p pd=1.76u as=0.114p ps=0.96u w=0.44u l=0.28u
X53 a_4177_361# CLK_div_31_mag_0.Q2 a_4017_361# VSS.t80 nfet_03v3 ad=0.172p pd=1.18u as=0.172p ps=1.18u w=0.66u l=0.28u
X54 a_1705_1493# CLK_div_31_mag_0.JK_FF_mag_0.nand3_mag_0.OUT VSS.t202 VSS.t201 nfet_03v3 ad=0.114p pd=0.96u as=0.194p ps=1.76u w=0.44u l=0.28u
X55 VSS CLK_div_31_mag_0.Buffer_Delayed1_mag_0.Inverter_delayed_mag_14.IN CLK_div_31_mag_0.Buffer_Delayed1_mag_0.Inverter_delayed_mag_13.IN VSS.t273 nfet_03v3 ad=0.152p pd=1.64u as=0.152p ps=1.64u w=0.22u l=1u
X56 CLK_div_31_mag_0.Buffer_Delayed1_mag_0.Inverter_delayed_mag_2.IN CLK_div_31_mag_0.Buffer_Delayed1_mag_0.Inverter_delayed_mag_1.IN VDD.t440 VDD.t439 pfet_03v3 ad=0.352p pd=2.48u as=0.352p ps=2.48u w=0.8u l=1u
X57 VSS VDD.t477 a_2528_4227# VSS.t40 nfet_03v3 ad=0.29p pd=2.2u as=0.172p ps=1.18u w=0.66u l=0.28u
X58 CLK_div_31_mag_0.and_5_mag_0.and2_mag_3.IN2 CLK_div_31_mag_0.and_5_mag_0.and2_mag_2.GF_INV_MAG_0.IN VDD.t100 VDD.t99 pfet_03v3 ad=0.352p pd=2.48u as=0.352p ps=2.48u w=0.8u l=0.28u
X59 VDD CLK_div_3_mag_0.Q1 CLK_div_3_mag_0.and2_mag_0.GF_INV_MAG_0.IN VDD.t461 pfet_03v3 ad=0.352p pd=2.48u as=0.208p ps=1.32u w=0.8u l=0.28u
X60 VDD CLK_div_31_mag_0.Q2 CLK_div_31_mag_0.nand_5_mag_0.and_5_mag_0.and2_mag_1.GF_INV_MAG_0.IN VDD.t133 pfet_03v3 ad=0.352p pd=2.48u as=0.208p ps=1.32u w=0.8u l=0.28u
X61 CLK_div_3_mag_0.JK_FF_mag_1.nand3_mag_1.OUT CLK_div_3_mag_0.JK_FF_mag_1.nand3_mag_1.IN1 VDD.t340 VDD.t339 pfet_03v3 ad=0.352p pd=2.48u as=0.208p ps=1.32u w=0.8u l=0.28u
X62 a_1804_4227# RST.t4 a_1644_4227# VSS.t56 nfet_03v3 ad=0.172p pd=1.18u as=0.172p ps=1.18u w=0.66u l=0.28u
X63 VDD CLK_div_31_mag_0.Q4.t6 CLK_div_31_mag_0.JK_FF_mag_4.QB VDD.t407 pfet_03v3 ad=0.352p pd=2.48u as=0.208p ps=1.32u w=0.8u l=0.28u
X64 CLK_div_31_mag_0.and_5_mag_0.and2_mag_2.GF_INV_MAG_0.IN CLK_div_31_mag_0.and_5_mag_0.and2_mag_2.IN2 VDD.t438 VDD.t437 pfet_03v3 ad=0.208p pd=1.32u as=0.352p ps=2.48u w=0.8u l=0.28u
X65 a_18923_208# CLK_div_3_mag_0.JK_FF_mag_0.nand3_mag_2.OUT VSS.t17 VSS.t16 nfet_03v3 ad=0.172p pd=1.18u as=0.29p ps=2.2u w=0.66u l=0.28u
X66 VDD RST.t5 CLK_div_31_mag_0.JK_FF_mag_0.nand3_mag_1.OUT VDD.t184 pfet_03v3 ad=0.208p pd=1.32u as=0.208p ps=1.32u w=0.8u l=0.28u
X67 VDD CLK_div_31_mag_0.JK_FF_mag_0.nand2_mag_3.IN1 CLK_div_31_mag_0.JK_FF_mag_0.nand2_mag_1.IN2 VDD.t268 pfet_03v3 ad=0.352p pd=2.48u as=0.208p ps=1.32u w=0.8u l=0.28u
X68 CLK_div_31_mag_0.Q2 CLK_div_31_mag_0.JK_FF_mag_0.nand2_mag_1.IN2 VDD.t254 VDD.t253 pfet_03v3 ad=0.208p pd=1.32u as=0.352p ps=2.48u w=0.8u l=0.28u
X69 VDD CLK_div_31_mag_0.Q1.t4 CLK_div_31_mag_0.JK_FF_mag_0.nand3_mag_0.OUT VDD.t13 pfet_03v3 ad=0.208p pd=1.32u as=0.208p ps=1.32u w=0.8u l=0.28u
X70 a_16630_252# CLK_div_3_mag_0.JK_FF_mag_1.nand3_mag_1.OUT VSS.t161 VSS.t160 nfet_03v3 ad=0.114p pd=0.96u as=0.194p ps=1.76u w=0.44u l=0.28u
X71 CLK_div_3_mag_0.JK_FF_mag_0.nand3_mag_1.IN1 CLK_div_3_mag_0.JK_FF_mag_0.nand3_mag_0.OUT VDD.t93 VDD.t92 pfet_03v3 ad=0.208p pd=1.32u as=0.352p ps=2.48u w=0.8u l=0.28u
X72 CLK_div_31_mag_0.Buffer_Delayed1_mag_0.Inverter_delayed_mag_3.IN CLK_div_31_mag_0.Buffer_Delayed1_mag_0.Inverter_delayed_mag_0.IN VSS.t181 VSS.t180 nfet_03v3 ad=0.152p pd=1.64u as=0.152p ps=1.64u w=0.22u l=1u
X73 CLK_div_31_mag_0.nand_5_mag_0.and_5_mag_0.and2_mag_1.GF_INV_MAG_0.IN CLK_div_31_mag_0.Q2 a_8452_3208# VSS.t79 nfet_03v3 ad=0.194p pd=1.76u as=0.114p ps=0.96u w=0.44u l=0.28u
X74 VDD CLK.t0 CLK_div_31_mag_0.JK_FF_mag_3.nand2_mag_3.IN1 VDD.t166 pfet_03v3 ad=0.352p pd=2.48u as=0.352p ps=2.48u w=0.8u l=0.28u
X75 a_8453_3965# CLK_div_31_mag_0.and_5_mag_0.and2_mag_1.IN2 VSS.t234 VSS.t233 nfet_03v3 ad=0.114p pd=0.96u as=0.194p ps=1.76u w=0.44u l=0.28u
X76 CLK_div_31_mag_0.JK_FF_mag_0.nand2_mag_1.IN2 CLK_div_31_mag_0.JK_FF_mag_0.nand3_mag_1.IN1 VDD.t336 VDD.t335 pfet_03v3 ad=0.208p pd=1.32u as=0.352p ps=2.48u w=0.8u l=0.28u
X77 VDD CLK_div_3_mag_0.JK_FF_mag_0.nand2_mag_3.IN1 CLK_div_3_mag_0.JK_FF_mag_0.nand2_mag_1.IN2 VDD.t387 pfet_03v3 ad=0.352p pd=2.48u as=0.208p ps=1.32u w=0.8u l=0.28u
X78 CLK_div_3_mag_0.JK_FF_mag_0.nand2_mag_3.IN1 CLK_div_3_mag_0.CLK VSS.t210 VSS.t209 nfet_03v3 ad=0.152p pd=1.64u as=0.152p ps=1.64u w=0.22u l=0.28u
X79 CLK_div_31_mag_0.JK_FF_mag_1.QB CLK_div_31_mag_0.JK_FF_mag_1.nand2_mag_4.IN2 VDD.t352 VDD.t351 pfet_03v3 ad=0.208p pd=1.32u as=0.352p ps=2.48u w=0.8u l=0.28u
X80 CLK_div_31_mag_0.JK_FF_mag_4.nand3_mag_1.OUT CLK_div_31_mag_0.JK_FF_mag_4.nand3_mag_2.OUT VDD.t180 VDD.t179 pfet_03v3 ad=0.208p pd=1.32u as=0.352p ps=2.48u w=0.8u l=0.28u
X81 VSS CLK_div_31_mag_0.or_2_mag_0.IN1 CLK_div_31_mag_0.or_2_mag_0.GF_INV_MAG_1.IN VSS.t175 nfet_03v3 ad=0.152p pd=1.64u as=86.8f ps=0.92u w=0.22u l=0.28u
X82 CLK_div_31_mag_0.JK_FF_mag_1.nand3_mag_1.IN1 CLK_div_31_mag_0.JK_FF_mag_1.nand3_mag_1.OUT a_4747_1502# VSS.t195 nfet_03v3 ad=0.194p pd=1.76u as=0.114p ps=0.96u w=0.44u l=0.28u
X83 a_4901_361# RST.t6 a_4741_361# VSS.t113 nfet_03v3 ad=0.172p pd=1.18u as=0.172p ps=1.18u w=0.66u l=0.28u
X84 CLK_div_3_mag_0.or_2_mag_0.GF_INV_MAG_1.IN CLK_div_3_mag_0.Q0 a_19614_2684# VDD.t308 pfet_03v3 ad=0.704p pd=4.08u as=0.416p ps=2.12u w=1.6u l=0.28u
X85 CLK_div_31_mag_0.JK_FF_mag_1.nand3_mag_1.IN1 CLK_div_31_mag_0.JK_FF_mag_1.nand3_mag_0.OUT VDD.t221 VDD.t220 pfet_03v3 ad=0.208p pd=1.32u as=0.352p ps=2.48u w=0.8u l=0.28u
X86 CLK_div_3_mag_0.JK_FF_mag_1.nand3_mag_1.OUT CLK_div_3_mag_0.JK_FF_mag_1.nand3_mag_1.IN1 a_16066_208# VSS.t222 nfet_03v3 ad=0.29p pd=2.2u as=0.172p ps=1.18u w=0.66u l=0.28u
X87 VDD RST.t7 CLK_div_3_mag_0.JK_FF_mag_0.nand3_mag_1.OUT VDD.t187 pfet_03v3 ad=0.208p pd=1.32u as=0.208p ps=1.32u w=0.8u l=0.28u
X88 CLK_div_31_mag_0.JK_FF_mag_0.nand2_mag_3.IN1 CLK_div_31_mag_0.Q1.t5 VDD.t17 VDD.t16 pfet_03v3 ad=0.352p pd=2.48u as=0.352p ps=2.48u w=0.8u l=0.28u
X89 CLK_div_31_mag_0.JK_FF_mag_0.nand3_mag_0.OUT VDD.t65 VDD.t67 VDD.t66 pfet_03v3 ad=0.208p pd=1.32u as=0.352p ps=2.48u w=0.8u l=0.28u
X90 CLK_div_31_mag_0.Q3 CLK_div_31_mag_0.JK_FF_mag_1.QB a_5875_1502# VSS.t12 nfet_03v3 ad=0.194p pd=1.76u as=0.114p ps=0.96u w=0.44u l=0.28u
X91 VDD CLK_div_3_mag_0.JK_FF_mag_0.nand3_mag_1.OUT CLK_div_3_mag_0.JK_FF_mag_0.nand3_mag_1.IN1 VDD.t364 pfet_03v3 ad=0.352p pd=2.48u as=0.208p ps=1.32u w=0.8u l=0.28u
X92 CLK_div_3_mag_0.JK_FF_mag_0.nand2_mag_1.IN2 CLK_div_3_mag_0.JK_FF_mag_0.nand3_mag_1.IN1 VDD.t350 VDD.t349 pfet_03v3 ad=0.208p pd=1.32u as=0.352p ps=2.48u w=0.8u l=0.28u
X93 CLK_div_31_mag_0.JK_FF_mag_0.nand2_mag_4.IN2 CLK_div_31_mag_0.JK_FF_mag_0.nand2_mag_3.IN1 a_2423_396# VSS.t166 nfet_03v3 ad=0.194p pd=1.76u as=0.114p ps=0.96u w=0.44u l=0.28u
X94 CLK_div_3_mag_0.JK_FF_mag_0.nand3_mag_0.OUT CLK_div_3_mag_0.Q1 VDD.t460 VDD.t459 pfet_03v3 ad=0.208p pd=1.32u as=0.352p ps=2.48u w=0.8u l=0.28u
X95 CLK_div_31_mag_0.JK_FF_mag_0.nand3_mag_2.OUT CLK_div_31_mag_0.Q2 VDD.t132 VDD.t131 pfet_03v3 ad=0.352p pd=2.48u as=0.208p ps=1.32u w=0.8u l=0.28u
X96 a_8537_404# CLK_div_31_mag_0.JK_FF_mag_4.nand3_mag_1.OUT VSS.t74 VSS.t73 nfet_03v3 ad=0.114p pd=0.96u as=0.194p ps=1.76u w=0.44u l=0.28u
X97 a_1859_352# RST.t8 a_1699_352# VSS.t114 nfet_03v3 ad=0.172p pd=1.18u as=0.172p ps=1.18u w=0.66u l=0.28u
X98 CLK_div_31_mag_0.JK_FF_mag_1.nand2_mag_1.IN2 CLK_div_31_mag_0.JK_FF_mag_1.nand2_mag_3.IN1 a_5311_1502# VSS.t86 nfet_03v3 ad=0.194p pd=1.76u as=0.114p ps=0.96u w=0.44u l=0.28u
X99 CLK_div_31_mag_0.JK_FF_mag_1.nand3_mag_2.OUT CLK_div_31_mag_0.Q3.t2 a_4177_361# VSS.t7 nfet_03v3 ad=0.29p pd=2.2u as=0.172p ps=1.18u w=0.66u l=0.28u
X100 VDD CLK_div_31_mag_0.Q3.t3 CLK_div_31_mag_0.JK_FF_mag_4.nand3_mag_2.OUT VDD.t79 pfet_03v3 ad=0.208p pd=1.32u as=0.208p ps=1.32u w=0.8u l=0.28u
X101 CLK_div_31_mag_0.JK_FF_mag_2.nand3_mag_1.IN1 CLK_div_31_mag_0.JK_FF_mag_2.nand3_mag_1.OUT VDD.t160 VDD.t159 pfet_03v3 ad=0.208p pd=1.32u as=0.352p ps=2.48u w=0.8u l=0.28u
X102 CLK_div_31_mag_0.JK_FF_mag_1.nand2_mag_1.IN2 CLK_div_31_mag_0.JK_FF_mag_1.nand3_mag_1.IN1 VDD.t250 VDD.t249 pfet_03v3 ad=0.208p pd=1.32u as=0.352p ps=2.48u w=0.8u l=0.28u
X103 a_5875_1502# CLK_div_31_mag_0.JK_FF_mag_1.nand2_mag_1.IN2 VSS.t84 VSS.t83 nfet_03v3 ad=0.114p pd=0.96u as=0.194p ps=1.76u w=0.44u l=0.28u
X104 CLK_div_3_mag_0.JK_FF_mag_1.nand3_mag_0.OUT CLK_div_3_mag_0.JK_FF_mag_1.QB VDD.t4 VDD.t3 pfet_03v3 ad=0.352p pd=2.48u as=0.208p ps=1.32u w=0.8u l=0.28u
X105 CLK_div_31_mag_0.JK_FF_mag_2.nand3_mag_0.OUT CLK_div_31_mag_0.Q0.t5 VDD.t431 VDD.t430 pfet_03v3 ad=0.208p pd=1.32u as=0.208p ps=1.32u w=0.8u l=0.28u
X106 CLK_div_3_mag_0.JK_FF_mag_1.nand3_mag_1.IN1 CLK_div_3_mag_0.JK_FF_mag_1.nand3_mag_0.OUT VDD.t232 VDD.t231 pfet_03v3 ad=0.208p pd=1.32u as=0.352p ps=2.48u w=0.8u l=0.28u
X107 VDD CLK.t1 CLK_div_31_mag_0.and_5_mag_0.and2_mag_3.GF_INV_MAG_0.IN VDD.t169 pfet_03v3 ad=0.352p pd=2.48u as=0.208p ps=1.32u w=0.8u l=0.28u
X108 CLK_div_31_mag_0.and_5_mag_0.VOUT CLK_div_31_mag_0.and_5_mag_0.and2_mag_3.GF_INV_MAG_0.IN VDD.t95 VDD.t94 pfet_03v3 ad=0.352p pd=2.48u as=0.352p ps=2.48u w=0.8u l=0.28u
X109 VDD CLK_div_31_mag_0.JK_FF_mag_3.nand2_mag_1.IN2 CLK_div_31_mag_0.Q0.t2 VDD.t392 pfet_03v3 ad=0.352p pd=2.48u as=0.208p ps=1.32u w=0.8u l=0.28u
X110 CLK_div_31_mag_0.JK_FF_mag_0.nand2_mag_3.IN1 CLK_div_31_mag_0.Q1.t6 VSS.t9 VSS.t8 nfet_03v3 ad=0.152p pd=1.64u as=0.152p ps=1.64u w=0.22u l=0.28u
X111 VDD CLK_div_3_mag_0.JK_FF_mag_0.nand2_mag_3.IN1 CLK_div_3_mag_0.JK_FF_mag_0.nand2_mag_4.IN2 VDD.t384 pfet_03v3 ad=0.352p pd=2.48u as=0.208p ps=1.32u w=0.8u l=0.28u
X112 CLK_div_31_mag_0.and_5_mag_0.and2_mag_0.GF_INV_MAG_0.IN CLK_div_31_mag_0.Q0.t6 VDD.t429 VDD.t428 pfet_03v3 ad=0.208p pd=1.32u as=0.352p ps=2.48u w=0.8u l=0.28u
X113 CLK_div_31_mag_0.and_5_mag_0.and2_mag_2.IN2 CLK_div_31_mag_0.and_5_mag_0.and2_mag_1.GF_INV_MAG_0.IN VSS.t147 VSS.t146 nfet_03v3 ad=0.152p pd=1.64u as=0.152p ps=1.64u w=0.22u l=0.28u
X114 CLK_div_31_mag_0.JK_FF_mag_2.nand2_mag_1.IN2 CLK_div_31_mag_0.JK_FF_mag_2.nand2_mag_3.IN1 VDD.t344 VDD.t343 pfet_03v3 ad=0.208p pd=1.32u as=0.352p ps=2.48u w=0.8u l=0.28u
X115 CLK_div_31_mag_0.nand_5_mag_0.and_5_mag_0.and2_mag_0.GF_INV_MAG_0.IN CLK_div_31_mag_0.Q0.t7 VDD.t427 VDD.t426 pfet_03v3 ad=0.208p pd=1.32u as=0.352p ps=2.48u w=0.8u l=0.28u
X116 CLK_div_31_mag_0.JK_FF_mag_1.nand2_mag_3.IN1 CLK_div_31_mag_0.Q2 VSS.t78 VSS.t77 nfet_03v3 ad=0.152p pd=1.64u as=0.152p ps=1.64u w=0.22u l=0.28u
X117 VSS CLK.t2 CLK_div_31_mag_0.JK_FF_mag_3.nand2_mag_3.IN1 VSS.t99 nfet_03v3 ad=0.152p pd=1.64u as=0.152p ps=1.64u w=0.22u l=0.28u
X118 a_8947_1501# CLK_div_31_mag_0.JK_FF_mag_4.nand2_mag_1.IN2 VSS.t150 VSS.t149 nfet_03v3 ad=0.114p pd=0.96u as=0.194p ps=1.76u w=0.44u l=0.28u
X119 VDD CLK_div_31_mag_0.Buffer_Delayed1_mag_0.Inverter_delayed_mag_9.IN CLK_div_31_mag_0.Buffer_Delayed1_mag_0.Inverter_delayed_mag_8.IN VDD.t287 pfet_03v3 ad=0.352p pd=2.48u as=0.352p ps=2.48u w=0.8u l=1u
X120 CLK_div_3_mag_0.JK_FF_mag_1.nand2_mag_3.IN1 CLK_div_3_mag_0.CLK VSS.t208 VSS.t207 nfet_03v3 ad=0.152p pd=1.64u as=0.152p ps=1.64u w=0.22u l=0.28u
X121 CLK_div_3_mag_0.JK_FF_mag_1.nand3_mag_2.OUT CLK_div_3_mag_0.Q1 VDD.t458 VDD.t457 pfet_03v3 ad=0.352p pd=2.48u as=0.208p ps=1.32u w=0.8u l=0.28u
X122 CLK_div_31_mag_0.Buffer_Delayed1_mag_0.Inverter_delayed_mag_0.IN CLK_div_31_mag_0.Buffer_Delayed1_mag_0.Inverter_delayed_mag_2.IN VSS.t168 VSS.t167 nfet_03v3 ad=0.152p pd=1.64u as=0.152p ps=1.64u w=0.22u l=1u
X123 CLK_div_31_mag_0.Buffer_Delayed1_mag_0.Inverter_delayed_mag_5.IN CLK_div_31_mag_0.Buffer_Delayed1_mag_0.Inverter_delayed_mag_4.IN VDD.t368 VDD.t367 pfet_03v3 ad=0.352p pd=2.48u as=0.352p ps=2.48u w=0.8u l=1u
X124 a_9404_3954# CLK_div_31_mag_0.and_5_mag_0.and2_mag_2.IN2 VSS.t288 VSS.t82 nfet_03v3 ad=0.114p pd=0.96u as=0.194p ps=1.76u w=0.44u l=0.28u
X125 CLK_div_31_mag_0.JK_FF_mag_0.nand3_mag_1.OUT CLK_div_31_mag_0.JK_FF_mag_0.nand3_mag_1.IN1 VDD.t334 VDD.t333 pfet_03v3 ad=0.352p pd=2.48u as=0.208p ps=1.32u w=0.8u l=0.28u
X126 VDD CLK_div_31_mag_0.JK_FF_mag_2.nand2_mag_1.IN2 CLK_div_31_mag_0.Q1.t0 VDD.t174 pfet_03v3 ad=0.352p pd=2.48u as=0.208p ps=1.32u w=0.8u l=0.28u
X127 VDD CLK_div_31_mag_0.JK_FF_mag_2.QB CLK_div_31_mag_0.JK_FF_mag_2.nand3_mag_0.OUT VDD.t262 pfet_03v3 ad=0.208p pd=1.32u as=0.352p ps=2.48u w=0.8u l=0.28u
X128 a_19083_208# RST.t9 a_18923_208# VSS.t115 nfet_03v3 ad=0.172p pd=1.18u as=0.172p ps=1.18u w=0.66u l=0.28u
X129 VDD CLK_div_3_mag_0.Q0 CLK_div_3_mag_0.JK_FF_mag_1.K.t1 VDD.t305 pfet_03v3 ad=0.352p pd=2.48u as=0.208p ps=1.32u w=0.8u l=0.28u
X130 CLK_div_31_mag_0.and_5_mag_0.and2_mag_3.GF_INV_MAG_0.IN CLK_div_31_mag_0.and_5_mag_0.and2_mag_3.IN2 VDD.t373 VDD.t372 pfet_03v3 ad=0.208p pd=1.32u as=0.352p ps=2.48u w=0.8u l=0.28u
X131 a_1798_3130# CLK_div_31_mag_0.JK_FF_mag_2.nand3_mag_1.OUT CLK_div_31_mag_0.JK_FF_mag_2.nand3_mag_1.IN1 VSS.t96 nfet_03v3 ad=0.114p pd=0.96u as=0.194p ps=1.76u w=0.44u l=0.28u
X132 VSS CLK_div_3_mag_0.Q0 CLK_div_3_mag_0.or_2_mag_0.GF_INV_MAG_1.IN VSS.t198 nfet_03v3 ad=0.152p pd=1.64u as=86.8f ps=0.92u w=0.22u l=0.28u
X133 VDD CLK_div_3_mag_0.JK_FF_mag_1.nand3_mag_1.OUT CLK_div_3_mag_0.JK_FF_mag_1.nand3_mag_1.IN1 VDD.t257 pfet_03v3 ad=0.352p pd=2.48u as=0.208p ps=1.32u w=0.8u l=0.28u
X134 CLK_div_3_mag_0.JK_FF_mag_1.QB CLK_div_3_mag_0.JK_FF_mag_1.nand2_mag_4.IN2 VDD.t217 VDD.t216 pfet_03v3 ad=0.208p pd=1.32u as=0.352p ps=2.48u w=0.8u l=0.28u
X135 VSS CLK_div_31_mag_0.JK_FF_mag_3.nand3_mag_0.OUT a_4858_3129# VSS.t162 nfet_03v3 ad=0.194p pd=1.76u as=0.114p ps=0.96u w=0.44u l=0.28u
X136 CLK_div_31_mag_0.or_2_mag_0.GF_INV_MAG_1.IN CLK_div_31_mag_0.or_2_mag_0.IN1 a_11989_2561# VDD.t282 pfet_03v3 ad=0.704p pd=4.08u as=0.416p ps=2.12u w=1.6u l=0.28u
X137 a_18205_1305# CLK_div_3_mag_0.Q1 VSS.t300 VSS.t299 nfet_03v3 ad=0.172p pd=1.18u as=0.29p ps=2.2u w=0.66u l=0.28u
X138 a_2522_3130# CLK_div_31_mag_0.Q0.t8 a_2362_3130# VSS.t43 nfet_03v3 ad=0.172p pd=1.18u as=0.172p ps=1.18u w=0.66u l=0.28u
X139 a_3730_3129# CLK_div_31_mag_0.JK_FF_mag_3.QB CLK_div_31_mag_0.Q0.t0 VSS.t3 nfet_03v3 ad=0.114p pd=0.96u as=0.194p ps=1.76u w=0.44u l=0.28u
X140 CLK_div_3_mag_0.CLK CLK_div_31_mag_0.or_2_mag_0.GF_INV_MAG_1.IN VDD.t284 VDD.t283 pfet_03v3 ad=0.352p pd=2.48u as=0.352p ps=2.48u w=0.8u l=0.28u
X141 CLK_div_3_mag_0.and2_mag_0.GF_INV_MAG_0.IN CLK_div_3_mag_0.Q1 a_18641_2448# VSS.t298 nfet_03v3 ad=0.194p pd=1.76u as=0.114p ps=0.96u w=0.44u l=0.28u
X142 CLK_div_31_mag_0.JK_FF_mag_0.nand3_mag_2.OUT CLK_div_31_mag_0.Q2 a_1135_352# VSS.t76 nfet_03v3 ad=0.29p pd=2.2u as=0.172p ps=1.18u w=0.66u l=0.28u
X143 CLK_div_31_mag_0.and_5_mag_0.and2_mag_1.IN2 CLK_div_31_mag_0.and_5_mag_0.and2_mag_0.GF_INV_MAG_0.IN VDD.t448 VDD.t447 pfet_03v3 ad=0.352p pd=2.48u as=0.352p ps=2.48u w=0.8u l=0.28u
X144 CLK_div_31_mag_0.JK_FF_mag_2.nand3_mag_2.OUT CLK_div_31_mag_0.Q0.t9 VDD.t425 VDD.t424 pfet_03v3 ad=0.208p pd=1.32u as=0.208p ps=1.32u w=0.8u l=0.28u
X145 a_1234_3130# CLK_div_31_mag_0.JK_FF_mag_2.nand2_mag_3.IN1 CLK_div_31_mag_0.JK_FF_mag_2.nand2_mag_1.IN2 VSS.t96 nfet_03v3 ad=0.114p pd=0.96u as=0.194p ps=1.76u w=0.44u l=0.28u
X146 VSS VDD.t478 a_5582_3129# VSS.t37 nfet_03v3 ad=0.29p pd=2.2u as=0.172p ps=1.18u w=0.66u l=0.28u
X147 a_7506_3203# CLK_div_31_mag_0.Q0.t10 VSS.t284 VSS.t268 nfet_03v3 ad=0.114p pd=0.96u as=0.194p ps=1.76u w=0.44u l=0.28u
X148 CLK_div_31_mag_0.Q1 CLK_div_31_mag_0.JK_FF_mag_2.QB VDD.t261 VDD.t260 pfet_03v3 ad=0.208p pd=1.32u as=0.352p ps=2.48u w=0.8u l=0.28u
X149 CLK_div_31_mag_0.nand_5_mag_0.and_5_mag_0.and2_mag_1.IN2 CLK_div_31_mag_0.nand_5_mag_0.and_5_mag_0.and2_mag_0.GF_INV_MAG_0.IN VDD.t330 VDD.t329 pfet_03v3 ad=0.352p pd=2.48u as=0.352p ps=2.48u w=0.8u l=0.28u
X150 VSS CLK_div_31_mag_0.Buffer_Delayed1_mag_0.Inverter_delayed_mag_9.IN CLK_div_31_mag_0.Buffer_Delayed1_mag_0.Inverter_delayed_mag_8.IN VSS.t182 nfet_03v3 ad=0.152p pd=1.64u as=0.152p ps=1.64u w=0.22u l=1u
X151 CLK_div_31_mag_0.JK_FF_mag_4.QB CLK_div_31_mag_0.Q4.t7 a_9101_404# VSS.t269 nfet_03v3 ad=0.194p pd=1.76u as=0.114p ps=0.96u w=0.44u l=0.28u
X152 VDD CLK_div_31_mag_0.JK_FF_mag_2.nand3_mag_1.OUT CLK_div_31_mag_0.JK_FF_mag_2.nand2_mag_4.IN2 VDD.t156 pfet_03v3 ad=0.352p pd=2.48u as=0.208p ps=1.32u w=0.8u l=0.28u
X153 VDD CLK_div_31_mag_0.JK_FF_mag_2.nand3_mag_1.IN1 CLK_div_31_mag_0.JK_FF_mag_2.nand3_mag_1.OUT VDD.t441 pfet_03v3 ad=0.208p pd=1.32u as=0.352p ps=2.48u w=0.8u l=0.28u
X154 VSS CLK_div_31_mag_0.JK_FF_mag_3.nand3_mag_1.IN1 a_4294_3129# VSS.t262 nfet_03v3 ad=0.194p pd=1.76u as=0.114p ps=0.96u w=0.44u l=0.28u
X155 CLK_div_31_mag_0.Q4 CLK_div_31_mag_0.JK_FF_mag_4.QB a_8947_1501# VSS.t98 nfet_03v3 ad=0.194p pd=1.76u as=0.114p ps=0.96u w=0.44u l=0.28u
X156 CLK_div_31_mag_0.nand_5_mag_0.and_5_mag_0.and2_mag_2.GF_INV_MAG_0.IN CLK_div_31_mag_0.Q3.t4 a_9403_3219# VSS.t52 nfet_03v3 ad=0.194p pd=1.76u as=0.114p ps=0.96u w=0.44u l=0.28u
X157 CLK_div_3_mag_0.JK_FF_mag_1.nand3_mag_0.OUT CLK_div_3_mag_0.JK_FF_mag_1.QB a_15348_1305# VSS.t1 nfet_03v3 ad=0.29p pd=2.2u as=0.172p ps=1.18u w=0.66u l=0.28u
X158 VDD CLK_div_3_mag_0.CLK CLK_div_3_mag_0.JK_FF_mag_0.nand3_mag_2.OUT VDD.t324 pfet_03v3 ad=0.208p pd=1.32u as=0.208p ps=1.32u w=0.8u l=0.28u
X159 VDD CLK_div_31_mag_0.JK_FF_mag_3.nand3_mag_2.OUT CLK_div_31_mag_0.JK_FF_mag_3.nand3_mag_1.OUT VDD.t235 pfet_03v3 ad=0.352p pd=2.48u as=0.208p ps=1.32u w=0.8u l=0.28u
X160 VSS CLK_div_31_mag_0.JK_FF_mag_2.nand2_mag_1.IN2 a_670_3130# VSS.t96 nfet_03v3 ad=0.194p pd=1.76u as=0.114p ps=0.96u w=0.44u l=0.28u
X161 a_4858_3129# CLK_div_31_mag_0.JK_FF_mag_3.nand3_mag_1.OUT CLK_div_31_mag_0.JK_FF_mag_3.nand3_mag_1.IN1 VSS.t130 nfet_03v3 ad=0.114p pd=0.96u as=0.194p ps=1.76u w=0.44u l=0.28u
X162 VDD CLK_div_31_mag_0.Q3.t5 CLK_div_31_mag_0.JK_FF_mag_1.QB VDD.t82 pfet_03v3 ad=0.352p pd=2.48u as=0.208p ps=1.32u w=0.8u l=0.28u
X163 CLK_div_31_mag_0.JK_FF_mag_1.nand3_mag_1.OUT CLK_div_31_mag_0.JK_FF_mag_1.nand3_mag_1.IN1 a_4901_361# VSS.t156 nfet_03v3 ad=0.29p pd=2.2u as=0.172p ps=1.18u w=0.66u l=0.28u
X164 a_2362_3130# CLK_div_31_mag_0.JK_FF_mag_2.QB CLK_div_31_mag_0.JK_FF_mag_2.nand3_mag_0.OUT VSS.t43 nfet_03v3 ad=0.172p pd=1.18u as=0.29p ps=2.2u w=0.66u l=0.28u
X165 CLK_div_31_mag_0.JK_FF_mag_0.nand2_mag_1.IN2 CLK_div_31_mag_0.JK_FF_mag_0.nand2_mag_3.IN1 a_2269_1493# VSS.t165 nfet_03v3 ad=0.194p pd=1.76u as=0.114p ps=0.96u w=0.44u l=0.28u
X166 a_2833_1493# CLK_div_31_mag_0.JK_FF_mag_0.nand2_mag_1.IN2 VSS.t158 VSS.t157 nfet_03v3 ad=0.114p pd=0.96u as=0.194p ps=1.76u w=0.44u l=0.28u
X167 VDD CLK_div_31_mag_0.Q1.t7 CLK_div_31_mag_0.JK_FF_mag_2.nand3_mag_2.OUT VDD.t18 pfet_03v3 ad=0.208p pd=1.32u as=0.352p ps=2.48u w=0.8u l=0.28u
X168 a_5582_3129# CLK.t3 a_5422_3129# VSS.t102 nfet_03v3 ad=0.172p pd=1.18u as=0.172p ps=1.18u w=0.66u l=0.28u
X169 CLK_div_31_mag_0.nand_5_mag_0.and_5_mag_0.and2_mag_2.IN2 CLK_div_31_mag_0.nand_5_mag_0.and_5_mag_0.and2_mag_1.GF_INV_MAG_0.IN VDD.t281 VDD.t280 pfet_03v3 ad=0.352p pd=2.48u as=0.352p ps=2.48u w=0.8u l=0.28u
X170 VDD CLK_div_3_mag_0.JK_FF_mag_1.K.t4 CLK_div_3_mag_0.Q0 VDD.t149 pfet_03v3 ad=0.352p pd=2.48u as=0.208p ps=1.32u w=0.8u l=0.28u
X171 a_19647_252# CLK_div_3_mag_0.JK_FF_mag_0.nand3_mag_1.OUT VSS.t242 VSS.t241 nfet_03v3 ad=0.114p pd=0.96u as=0.194p ps=1.76u w=0.44u l=0.28u
X172 CLK_div_3_mag_0.JK_FF_mag_0.nand3_mag_1.OUT CLK_div_3_mag_0.JK_FF_mag_0.nand3_mag_1.IN1 VDD.t348 VDD.t347 pfet_03v3 ad=0.352p pd=2.48u as=0.208p ps=1.32u w=0.8u l=0.28u
X173 CLK_div_31_mag_0.JK_FF_mag_2.nand2_mag_4.IN2 CLK_div_31_mag_0.JK_FF_mag_2.nand2_mag_3.IN1 VDD.t342 VDD.t341 pfet_03v3 ad=0.208p pd=1.32u as=0.352p ps=2.48u w=0.8u l=0.28u
X174 a_4294_3129# CLK_div_31_mag_0.JK_FF_mag_3.nand2_mag_3.IN1 CLK_div_31_mag_0.JK_FF_mag_3.nand2_mag_1.IN2 VSS.t66 nfet_03v3 ad=0.114p pd=0.96u as=0.194p ps=1.76u w=0.44u l=0.28u
X175 CLK_div_3_mag_0.or_2_mag_0.GF_INV_MAG_1.IN CLK_div_3_mag_0.or_2_mag_0.IN2 VSS.t88 VSS.t87 nfet_03v3 ad=86.8f pd=0.92u as=0.152p ps=1.64u w=0.22u l=0.28u
X176 a_18929_1349# CLK_div_3_mag_0.JK_FF_mag_0.nand3_mag_0.OUT VSS.t58 VSS.t57 nfet_03v3 ad=0.114p pd=0.96u as=0.194p ps=1.76u w=0.44u l=0.28u
X177 VDD CLK_div_31_mag_0.Q2 CLK_div_31_mag_0.JK_FF_mag_0.QB.t0 VDD.t128 pfet_03v3 ad=0.352p pd=2.48u as=0.208p ps=1.32u w=0.8u l=0.28u
X178 CLK_div_3_mag_0.JK_FF_mag_1.nand3_mag_2.OUT CLK_div_3_mag_0.Q1 a_15342_208# VSS.t297 nfet_03v3 ad=0.29p pd=2.2u as=0.172p ps=1.18u w=0.66u l=0.28u
X179 CLK_div_31_mag_0.or_2_mag_0.IN1 CLK_div_31_mag_0.Buffer_Delayed1_mag_0.Inverter_delayed_mag_7.IN VSS.t236 VSS.t235 nfet_03v3 ad=0.152p pd=1.64u as=0.152p ps=1.64u w=0.22u l=1u
X180 a_2528_4227# CLK_div_31_mag_0.Q0.t11 a_2368_4227# VSS.t283 nfet_03v3 ad=0.172p pd=1.18u as=0.172p ps=1.18u w=0.66u l=0.28u
X181 CLK_div_3_mag_0.and2_mag_0.GF_INV_MAG_0.IN CLK_div_3_mag_0.CLK VDD.t323 VDD.t322 pfet_03v3 ad=0.208p pd=1.32u as=0.352p ps=2.48u w=0.8u l=0.28u
X182 CLK_div_31_mag_0.JK_FF_mag_0.nand3_mag_1.OUT CLK_div_31_mag_0.JK_FF_mag_0.nand3_mag_1.IN1 a_1859_352# VSS.t219 nfet_03v3 ad=0.29p pd=2.2u as=0.172p ps=1.18u w=0.66u l=0.28u
X183 CLK_div_31_mag_0.and_5_mag_0.and2_mag_3.IN2 CLK_div_31_mag_0.and_5_mag_0.and2_mag_2.GF_INV_MAG_0.IN VSS.t65 VSS.t64 nfet_03v3 ad=0.152p pd=1.64u as=0.152p ps=1.64u w=0.22u l=0.28u
X184 CLK_div_31_mag_0.JK_FF_mag_3.nand3_mag_1.OUT RST.t10 VDD.t191 VDD.t190 pfet_03v3 ad=0.208p pd=1.32u as=0.208p ps=1.32u w=0.8u l=0.28u
X185 a_670_3130# CLK_div_31_mag_0.JK_FF_mag_2.QB CLK_div_31_mag_0.Q1.t2 VSS.t96 nfet_03v3 ad=0.114p pd=0.96u as=0.194p ps=1.76u w=0.44u l=0.28u
X186 CLK_div_31_mag_0.nand_5_mag_0.and_5_mag_0.and2_mag_1.GF_INV_MAG_0.IN CLK_div_31_mag_0.nand_5_mag_0.and_5_mag_0.and2_mag_1.IN2 VDD.t241 VDD.t240 pfet_03v3 ad=0.208p pd=1.32u as=0.352p ps=2.48u w=0.8u l=0.28u
X187 CLK_div_3_mag_0.JK_FF_mag_0.nand2_mag_1.IN2 CLK_div_3_mag_0.JK_FF_mag_0.nand2_mag_3.IN1 a_19493_1349# VSS.t255 nfet_03v3 ad=0.194p pd=1.76u as=0.114p ps=0.96u w=0.44u l=0.28u
X188 a_20211_252# CLK_div_3_mag_0.JK_FF_mag_0.nand2_mag_4.IN2 VSS.t189 VSS.t188 nfet_03v3 ad=0.114p pd=0.96u as=0.194p ps=1.76u w=0.44u l=0.28u
X189 VSS CLK_div_31_mag_0.JK_FF_mag_2.nand3_mag_1.OUT a_1080_4227# VSS.t93 nfet_03v3 ad=0.194p pd=1.76u as=0.114p ps=0.96u w=0.44u l=0.28u