* NGSPICE file created from pll_1_mag_flat.ext - technology: gf180mcuC

.subckt pll_1_mag_flat IPD_ pd VCO_op_bar IPD+ pu LP_ext VCO_op Vref RST_DIV EN VDD_VCO
+ VDD VSS
X0 VDD_VCO VCO_mag_0.Delay_Cell_mag_2.OUTB.t16 VCO_mag_0.Delay_Cell_mag_0.IN VDD_VCO.t117 pfet_03v3 ad=0.13p pd=1.02u as=0.13p ps=1.02u w=0.5u l=0.35u
X1 VDD CLK_div_110_mag_0.CLK_div_10_mag_0.Q0 CLK_div_110_mag_0.CLK_div_10_mag_0.JK_FF_mag_0.nand3_mag_2.OUT VDD.t448 pfet_03v3 ad=0.208p pd=1.32u as=0.208p ps=1.32u w=0.8u l=0.28u
X2 a_72321_5529# VDD.t688 VSS.t481 VSS.t480 nfet_03v3 ad=0.172p pd=1.18u as=0.29p ps=2.2u w=0.66u l=0.28u
X3 CLK_div_110_mag_0.CLK_DIV_11_mag_new_0.JK_FF_mag_2.nand2_mag_3.IN1 VCO_op.t8 VDD.t398 VDD.t397 pfet_03v3 ad=0.352p pd=2.48u as=0.352p ps=2.48u w=0.8u l=0.28u
X4 LF_mag_0.res_48k_mag_0.B VSS.t433 cap_mim_2f0_m4m5_noshield c_width=25u c_length=25u
X5 CLK_div_110_mag_0.CLK_div_10_mag_0.JK_FF_mag_0.nand3_mag_1.IN1 CLK_div_110_mag_0.CLK_div_10_mag_0.JK_FF_mag_0.nand3_mag_0.OUT VDD.t347 VDD.t346 pfet_03v3 ad=0.208p pd=1.32u as=0.352p ps=2.48u w=0.8u l=0.28u
X6 a_68145_4432# CLK_div_110_mag_0.CLK_div_10_mag_0.JK_FF_mag_2.nand2_mag_1.IN2 VSS.t145 VSS.t144 nfet_03v3 ad=0.114p pd=0.96u as=0.194p ps=1.76u w=0.44u l=0.28u
X7 VCO_mag_0.Delay_Cell_mag_1.IN VCO_mag_0.Delay_Cell_mag_0.OUT a_65581_17830# VSS.t352 nfet_03v3 ad=0.26p pd=1.52u as=0.26p ps=1.52u w=1u l=0.56u
X8 VDD CLK_div_110_mag_0.CLK_div_10_mag_0.Q3 CLK_div_110_mag_0.CLK_div_10_mag_0.JK_FF_mag_2.K.t2 VDD.t271 pfet_03v3 ad=0.352p pd=2.48u as=0.208p ps=1.32u w=0.8u l=0.28u
X9 VDD CLK_div_110_mag_0.CLK_div_10_mag_0.Q2 CLK_div_110_mag_0.CLK_div_10_mag_0.and2_mag_1.GF_INV_MAG_0.IN VDD.t669 pfet_03v3 ad=0.352p pd=2.48u as=0.208p ps=1.32u w=0.8u l=0.28u
X10 CLK_div_110_mag_0.CLK_div_10_mag_0.JK_FF_mag_1.nand3_mag_0.OUT VDD.t494 VDD.t496 VDD.t495 pfet_03v3 ad=0.208p pd=1.32u as=0.352p ps=2.48u w=0.8u l=0.28u
X11 a_74333_5529# CLK_div_110_mag_0.CLK_div_10_mag_0.JK_FF_mag_0.nand2_mag_4.IN2 VSS.t163 VSS.t162 nfet_03v3 ad=0.114p pd=0.96u as=0.194p ps=1.76u w=0.44u l=0.28u
X12 CLK_div_110_mag_0.CLK_DIV_11_mag_new_0.JK_FF_mag_2.nand3_mag_2.OUT CLK_div_110_mag_0.CLK_DIV_11_mag_new_0.Q1 a_69327_6404# VSS.t249 nfet_03v3 ad=0.29p pd=2.2u as=0.172p ps=1.18u w=0.66u l=0.28u
X13 VCO_op_bar VCO_mag_0.GF_INV16_1.IN VDD_VCO.t155 VDD_VCO.t154 pfet_03v3 ad=0.728p pd=3.32u as=1.23p ps=6.48u w=2.8u l=0.35u
X14 VSS VCO_mag_0.VCONT.t45 a_67077_14631.t11 VSS.t609 nfet_03v3 ad=0.26p pd=1.52u as=0.26p ps=1.52u w=1u l=0.56u
X15 CLK_div_110_mag_0.CLK_DIV_11_mag_new_0.GF_INV_MAG_0.IN CLK_div_110_mag_0.CLK_DIV_11_mag_new_0.Q1 VDD.t238 VDD.t230 pfet_03v3 ad=0.208p pd=1.32u as=0.352p ps=2.48u w=0.8u l=0.28u
X16 VDD CLK_div_110_mag_0.CLK_div_10_mag_0.JK_FF_mag_1.QB CLK_div_110_mag_0.CLK_div_10_mag_0.Q0 VDD.t241 pfet_03v3 ad=0.352p pd=2.48u as=0.208p ps=1.32u w=0.8u l=0.28u
X17 VDD RST_DIV.t0 CLK_div_110_mag_0.CLK_div_10_mag_0.JK_FF_mag_0.nand3_mag_1.OUT VDD.t598 pfet_03v3 ad=0.208p pd=1.32u as=0.208p ps=1.32u w=0.8u l=0.28u
X18 a_69891_6404# CLK_div_110_mag_0.CLK_DIV_11_mag_new_0.JK_FF_mag_2.nand3_mag_2.OUT VSS.t553 VSS.t552 nfet_03v3 ad=0.172p pd=1.18u as=0.29p ps=2.2u w=0.66u l=0.28u
X19 VSS EN.t0 a_59138_17829# VSS.t547 nfet_03v3 ad=0.26p pd=1.52u as=0.26p ps=1.52u w=1u l=0.56u
X20 VDD_VCO a_67077_18370.t10 a_67077_18370.t11 VDD_VCO.t50 pfet_03v3 ad=0.44p pd=2.88u as=0.26p ps=1.52u w=1u l=0.56u
X21 CLK_div_110_mag_0.CLK_DIV_11_mag_new_0.JK_FF_mag_2.nand3_mag_0.OUT CLK_div_110_mag_0.CLK_DIV_11_mag_new_0.or_2_mag_3.IN1.t3 VDD.t594 VDD.t593 pfet_03v3 ad=0.352p pd=2.48u as=0.208p ps=1.32u w=0.8u l=0.28u
X22 LP_ext a2x1mux_mag_0.Transmission_gate_mag_0.CLK VCO_mag_0.VCONT.t38 VSS.t515 nfet_03v3 ad=0.26p pd=1.52u as=0.26p ps=1.52u w=1u l=0.28u
X23 PFD_layout_0.DFF__0.nand2_2.IN2 PFD_layout_0.DFF__0.nand2_1.IN1 a_61538_21913# VSS.t275 nfet_03v3 ad=0.194p pd=1.76u as=0.114p ps=0.96u w=0.44u l=0.28u
X24 CLK_div_110_mag_0.CLK_DIV_11_mag_new_0.Q3 CLK_div_110_mag_0.CLK_DIV_11_mag_new_0.or_2_mag_3.IN2 a_64776_7545# VSS.t450 nfet_03v3 ad=0.194p pd=1.76u as=0.114p ps=0.96u w=0.44u l=0.28u
X25 VDD_VCO VCO_mag_0.GF_INV1_0.OUT VCO_mag_0.GF_INV16_2.IN VDD_VCO.t164 pfet_03v3 ad=0.616p pd=3.68u as=0.364p ps=1.92u w=1.4u l=0.35u
X26 VCO_mag_0.Delay_Cell_mag_0.INB VCO_mag_0.Delay_Cell_mag_2.OUT.t16 VSS.t663 VSS.t662 nfet_03v3 ad=0.26p pd=1.52u as=0.26p ps=1.52u w=1u l=0.35u
X27 VCO_mag_0.Delay_Cell_mag_0.OUTB VCO_mag_0.Delay_Cell_mag_0.INB a_65581_14091# VSS.t609 nfet_03v3 ad=0.26p pd=1.52u as=0.26p ps=1.52u w=1u l=0.56u
X28 VSS PFD_layout_0.buffer_loading_mag_1.IN a_62430_23292# VSS.t208 nfet_03v3 ad=0.194p pd=1.76u as=0.114p ps=0.96u w=0.44u l=0.28u
X29 VDD a_63591_22645# pd.t7 VDD.t206 pfet_03v3 ad=0.26p pd=1.52u as=0.26p ps=1.52u w=1u l=0.28u
X30 a_60147_8532# CLK_div_110_mag_0.CLK_DIV_11_mag_new_0.Q1 VSS.t248 VSS.t247 nfet_03v3 ad=0.172p pd=1.18u as=0.29p ps=2.2u w=0.66u l=0.28u
X31 VCO_mag_0.VCONT a2x1mux_mag_0.SEL LF_mag_0.VCNTL.t19 VSS.t105 nfet_03v3 ad=0.26p pd=1.52u as=0.26p ps=1.52u w=1u l=0.28u
X32 a_63436_4432# CLK_div_110_mag_0.CLK_DIV_11_mag_new_0.Vdiv11 a_63276_4432# VSS.t143 nfet_03v3 ad=0.172p pd=1.18u as=0.172p ps=1.18u w=0.66u l=0.28u
X33 CLK_div_110_mag_0.CLK_DIV_11_mag_new_0.JK_FF_mag_3.nand3_mag_1.IN1 CLK_div_110_mag_0.CLK_DIV_11_mag_new_0.JK_FF_mag_3.nand3_mag_1.OUT a_73056_7541# VSS.t213 nfet_03v3 ad=0.194p pd=1.76u as=0.114p ps=0.96u w=0.44u l=0.28u
X34 a_63648_7545# CLK_div_110_mag_0.CLK_DIV_11_mag_new_0.JK_FF_mag_0.nand3_mag_0.OUT VSS.t497 VSS.t496 nfet_03v3 ad=0.114p pd=0.96u as=0.194p ps=1.76u w=0.44u l=0.28u
X35 CLK_div_110_mag_0.CLK_DIV_11_mag_new_0.JK_FF_mag_1.nand2_mag_4.IN2 CLK_div_110_mag_0.CLK_DIV_11_mag_new_0.JK_FF_mag_1.nand2_mag_3.IN1 a_67501_6446# VSS.t572 nfet_03v3 ad=0.194p pd=1.76u as=0.114p ps=0.96u w=0.44u l=0.28u
X36 LF_mag_0.res_48k_mag_0.B VSS.t432 cap_mim_2f0_m4m5_noshield c_width=25u c_length=25u
X37 VDD CLK_div_110_mag_0.CLK_div_10_mag_0.Q0 CLK_div_110_mag_0.CLK_div_10_mag_0.JK_FF_mag_0.nand3_mag_0.OUT VDD.t445 pfet_03v3 ad=0.208p pd=1.32u as=0.208p ps=1.32u w=0.8u l=0.28u
X38 a_73620_7541# CLK_div_110_mag_0.CLK_DIV_11_mag_new_0.JK_FF_mag_3.nand3_mag_1.IN1 VSS.t603 VSS.t602 nfet_03v3 ad=0.114p pd=0.96u as=0.194p ps=1.76u w=0.44u l=0.28u
X39 VDD RST_DIV.t1 CLK_div_110_mag_0.CLK_DIV_11_mag_new_0.JK_FF_mag_1.nand3_mag_1.OUT VDD.t601 pfet_03v3 ad=0.208p pd=1.32u as=0.208p ps=1.32u w=0.8u l=0.28u
X40 a_63452_24694# PFD_layout_0.nand2_0.IN1 VDD.t62 VDD.t61 pfet_03v3 ad=0.26p pd=1.52u as=0.26p ps=1.52u w=1u l=0.28u
X41 PFD_layout_0.DFF__0.nand2_1.IN1 PFD_layout_0.DFF__0.CLK VDD.t245 VDD.t244 pfet_03v3 ad=0.208p pd=1.32u as=0.352p ps=2.48u w=0.8u l=0.28u
X42 VCO_mag_0.Delay_Cell_mag_2.INB VCO_mag_0.Delay_Cell_mag_2.INB a_58943_20071# VDD_VCO.t33 pfet_03v3 ad=0.26p pd=1.52u as=0.44p ps=2.88u w=1u l=0.56u
X43 a_67618_24851# IPD+.t4 VSS.t151 VSS.t150 nfet_03v3 ad=92.8f pd=0.92u as=92.8f ps=0.92u w=0.28u l=0.56u
X44 VCO_mag_0.Delay_Cell_mag_2.IN VCO_mag_0.Delay_Cell_mag_1.INB.t16 a_59138_17829# VSS.t542 nfet_03v3 ad=0.26p pd=1.52u as=0.26p ps=1.52u w=1u l=0.56u
X45 VSS CLK_div_110_mag_0.CLK_DIV_11_mag_new_0.and2_mag_2.OUT CLK_div_110_mag_0.CLK_DIV_11_mag_new_0.or_2_mag_1.GF_INV_MAG_1.IN VSS.t330 nfet_03v3 ad=0.152p pd=1.64u as=86.8f ps=0.92u w=0.22u l=0.28u
X46 LF_mag_0.res_48k_mag_0.B VSS.t431 cap_mim_2f0_m4m5_noshield c_width=25u c_length=25u
X47 VCO_mag_0.Delay_Cell_mag_2.OUTB VCO_mag_0.Delay_Cell_mag_2.OUT.t17 VDD_VCO.t189 VDD_VCO.t113 pfet_03v3 ad=0.26p pd=1.52u as=0.26p ps=1.52u w=1u l=0.56u
X48 a_70615_6448# CLK_div_110_mag_0.CLK_DIV_11_mag_new_0.JK_FF_mag_2.nand3_mag_1.OUT VSS.t112 VSS.t111 nfet_03v3 ad=0.114p pd=0.96u as=0.194p ps=1.76u w=0.44u l=0.28u
X49 a_60304_24408# PFD_layout_0.DFF__1.CLK VSS.t230 VSS.t229 nfet_03v3 ad=0.114p pd=0.96u as=0.194p ps=1.76u w=0.44u l=0.28u
X50 a_58943_16333# a_60634_14631.t12 VDD_VCO.t64 VDD_VCO.t63 pfet_03v3 ad=0.26p pd=1.52u as=0.26p ps=1.52u w=1u l=0.56u
X51 CLK_div_110_mag_0.CLK_DIV_11_mag_new_0.nand3_mag_1.OUT VCO_op.t9 VDD.t400 VDD.t399 pfet_03v3 ad=0.352p pd=2.48u as=0.208p ps=1.32u w=0.8u l=0.28u
X52 VDD CLK_div_110_mag_0.CLK_div_10_mag_0.JK_FF_mag_0.nand3_mag_1.OUT CLK_div_110_mag_0.CLK_div_10_mag_0.JK_FF_mag_0.nand3_mag_1.IN1 VDD.t213 pfet_03v3 ad=0.352p pd=2.48u as=0.208p ps=1.32u w=0.8u l=0.28u
X53 CLK_div_110_mag_0.CLK_div_10_mag_0.JK_FF_mag_3.nand3_mag_1.OUT CLK_div_110_mag_0.CLK_div_10_mag_0.JK_FF_mag_3.nand3_mag_1.IN1 a_70188_5529# VSS.t528 nfet_03v3 ad=0.29p pd=2.2u as=0.172p ps=1.18u w=0.66u l=0.28u
X54 CLK_div_110_mag_0.CLK_DIV_11_mag_new_0.Q0 CLK_div_110_mag_0.CLK_DIV_11_mag_new_0.JK_FF_mag_3.QB a_74184_7541# VSS.t130 nfet_03v3 ad=0.194p pd=1.76u as=0.114p ps=0.96u w=0.44u l=0.28u
X55 VCO_mag_0.VCONT a2x1mux_mag_0.Transmission_gate_mag_0.inv_my_mag_0.OUT LP_ext.t9 VDD.t357 pfet_03v3 ad=0.26p pd=1.52u as=0.26p ps=1.52u w=1u l=0.28u
X56 PFD_layout_0.DFF__0.nand2_2.IN2 PFD_layout_0.DFF__0.inv_0.OUT VDD.t658 VDD.t657 pfet_03v3 ad=0.208p pd=1.32u as=0.352p ps=2.48u w=0.8u l=0.28u
X57 LF_mag_0.res_48k_mag_0.B VSS.t430 cap_mim_2f0_m4m5_noshield c_width=25u c_length=25u
X58 VDD CLK_div_110_mag_0.CLK_div_10_mag_0.JK_FF_mag_3.nand2_mag_3.IN1 CLK_div_110_mag_0.CLK_div_10_mag_0.JK_FF_mag_3.nand2_mag_4.IN2 VDD.t221 pfet_03v3 ad=0.352p pd=2.48u as=0.208p ps=1.32u w=0.8u l=0.28u
X59 pu a_63452_24694# VDD.t20 VDD.t19 pfet_03v3 ad=0.26p pd=1.52u as=0.44p ps=2.88u w=1u l=0.28u
X60 VDD_VCO VCO_mag_0.Delay_Cell_mag_0.OUTB.t16 VCO_mag_0.Delay_Cell_mag_0.OUT VDD_VCO.t40 pfet_03v3 ad=0.26p pd=1.52u as=0.26p ps=1.52u w=1u l=0.56u
X61 CLK_div_110_mag_0.CLK_div_10_mag_0.JK_FF_mag_0.nand2_mag_1.IN2 CLK_div_110_mag_0.CLK_div_10_mag_0.JK_FF_mag_0.nand3_mag_1.IN1 VDD.t338 VDD.t337 pfet_03v3 ad=0.208p pd=1.32u as=0.352p ps=2.48u w=0.8u l=0.28u
X62 a_70752_5529# CLK_div_110_mag_0.CLK_div_10_mag_0.JK_FF_mag_3.nand3_mag_1.OUT VSS.t369 VSS.t368 nfet_03v3 ad=0.114p pd=0.96u as=0.194p ps=1.76u w=0.44u l=0.28u
X63 CLK_div_110_mag_0.CLK_DIV_11_mag_new_0.JK_FF_mag_1.nand3_mag_2.OUT CLK_div_110_mag_0.CLK_DIV_11_mag_new_0.and2_mag_1.OUT.t2 VDD.t652 VDD.t651 pfet_03v3 ad=0.208p pd=1.32u as=0.352p ps=2.48u w=0.8u l=0.28u
X64 CLK_div_110_mag_0.CLK_div_10_mag_0.JK_FF_mag_0.nand3_mag_0.OUT CLK_div_110_mag_0.CLK_div_10_mag_0.JK_FF_mag_2.K.t3 a_72487_4432# VSS.t445 nfet_03v3 ad=0.29p pd=2.2u as=0.172p ps=1.18u w=0.66u l=0.28u
X65 a_64776_7545# CLK_div_110_mag_0.CLK_DIV_11_mag_new_0.JK_FF_mag_0.nand2_mag_1.IN2 VSS.t88 VSS.t87 nfet_03v3 ad=0.114p pd=0.96u as=0.194p ps=1.76u w=0.44u l=0.28u
X66 a_63591_22645# PFD_layout_0.buffer_loading_mag_1.IN VSS.t207 VSS.t206 nfet_03v3 ad=0.13p pd=1.02u as=0.22p ps=1.88u w=0.5u l=0.28u
X67 LF_mag_0.res_48k_mag_0.B VSS.t429 cap_mim_2f0_m4m5_noshield c_width=25u c_length=25u
X68 a_73051_4432# CLK_div_110_mag_0.CLK_div_10_mag_0.JK_FF_mag_0.nand3_mag_0.OUT VSS.t325 VSS.t233 nfet_03v3 ad=0.114p pd=0.96u as=0.194p ps=1.76u w=0.44u l=0.28u
X69 a2x1mux_mag_0.Transmission_gate_mag_0.inv_my_mag_0.OUT a2x1mux_mag_0.Transmission_gate_mag_0.CLK VSS.t514 VSS.t513 nfet_03v3 ad=0.152p pd=1.64u as=0.152p ps=1.64u w=0.22u l=0.28u
X70 a_65386_16333# VCO_mag_0.Delay_Cell_mag_0.OUTB.t10 VCO_mag_0.Delay_Cell_mag_0.OUTB.t11 VDD_VCO.t39 pfet_03v3 ad=0.26p pd=1.52u as=0.26p ps=1.52u w=1u l=0.56u
X71 CLK_div_110_mag_0.CLK_div_10_mag_0.JK_FF_mag_0.K CLK_div_110_mag_0.CLK_div_10_mag_0.and2_mag_2.GF_INV_MAG_0.IN VSS.t606 VSS.t605 nfet_03v3 ad=0.152p pd=1.64u as=0.152p ps=1.64u w=0.22u l=0.28u
X72 PFD_layout_0.DFF__0.inv_0.OUT PFD_layout_0.DFF__0.nand2_3.OUT VSS.t154 VSS.t153 nfet_03v3 ad=0.152p pd=1.64u as=0.152p ps=1.64u w=0.22u l=0.28u
X73 CLK_div_110_mag_0.CLK_div_10_mag_0.and2_mag_1.GF_INV_MAG_0.IN CLK_div_110_mag_0.CLK_div_10_mag_0.Q2 a_72152_3335# VSS.t443 nfet_03v3 ad=0.194p pd=1.76u as=0.114p ps=0.96u w=0.44u l=0.28u
X74 a_63276_4432# VDD.t689 VSS.t479 VSS.t478 nfet_03v3 ad=0.172p pd=1.18u as=0.29p ps=2.2u w=0.66u l=0.28u
X75 a_73056_7541# CLK_div_110_mag_0.CLK_DIV_11_mag_new_0.JK_FF_mag_3.nand3_mag_0.OUT VSS.t215 VSS.t214 nfet_03v3 ad=0.114p pd=0.96u as=0.194p ps=1.76u w=0.44u l=0.28u
X76 VCO_mag_0.Delay_Cell_mag_0.IN VCO_mag_0.Delay_Cell_mag_2.OUTB.t17 VSS.t188 VSS.t187 nfet_03v3 ad=0.26p pd=1.52u as=0.26p ps=1.52u w=1u l=0.35u
X77 VSS EN.t1 a_65581_14091# VSS.t583 nfet_03v3 ad=0.26p pd=1.52u as=0.26p ps=1.52u w=1u l=0.56u
X78 CLK_div_110_mag_0.CLK_div_10_mag_0.Q0 CLK_div_110_mag_0.CLK_div_10_mag_0.JK_FF_mag_1.QB a_65128_4432# VSS.t251 nfet_03v3 ad=0.194p pd=1.76u as=0.114p ps=0.96u w=0.44u l=0.28u
X79 VCO_mag_0.Delay_Cell_mag_0.OUTB VCO_mag_0.Delay_Cell_mag_0.INB a_65581_14091# VSS.t583 nfet_03v3 ad=0.26p pd=1.52u as=0.26p ps=1.52u w=1u l=0.56u
X80 CLK_div_110_mag_0.CLK_DIV_11_mag_new_0.JK_FF_mag_1.nand3_mag_1.OUT CLK_div_110_mag_0.CLK_DIV_11_mag_new_0.JK_FF_mag_1.nand3_mag_2.OUT VDD.t39 VDD.t38 pfet_03v3 ad=0.208p pd=1.32u as=0.352p ps=2.48u w=0.8u l=0.28u
X81 CLK_div_110_mag_0.CLK_div_10_mag_0.JK_FF_mag_3.QB CLK_div_110_mag_0.CLK_div_10_mag_0.Q2 a_71316_5529# VSS.t653 nfet_03v3 ad=0.194p pd=1.76u as=0.114p ps=0.96u w=0.44u l=0.28u
X82 a_64212_7545# CLK_div_110_mag_0.CLK_DIV_11_mag_new_0.JK_FF_mag_0.nand3_mag_1.IN1 VSS.t668 VSS.t667 nfet_03v3 ad=0.114p pd=0.96u as=0.194p ps=1.76u w=0.44u l=0.28u
X83 PFD_layout_0.DFF__0.nand2_1.IN1 PFD_layout_0.buffer_mag_0.OUT a_60305_23482# VSS.t266 nfet_03v3 ad=0.194p pd=1.76u as=0.114p ps=0.96u w=0.44u l=0.28u
X84 VCO_mag_0.Delay_Cell_mag_2.OUTB VCO_mag_0.Delay_Cell_mag_2.OUT.t18 VDD_VCO.t190 VDD_VCO.t109 pfet_03v3 ad=0.26p pd=1.52u as=0.26p ps=1.52u w=1u l=0.56u
X85 LF_mag_0.res_48k_mag_0.B VSS.t428 cap_mim_2f0_m4m5_noshield c_width=25u c_length=25u
X86 VDD a_63452_24694# pu.t6 VDD.t16 pfet_03v3 ad=0.44p pd=2.88u as=0.26p ps=1.52u w=1u l=0.28u
X87 PFD_layout_0.DFF__1.nand2_2.IN1 VDD.t491 VDD.t493 VDD.t492 pfet_03v3 ad=0.208p pd=1.32u as=0.352p ps=2.48u w=0.8u l=0.28u
X88 a_67806_9704# CLK_div_110_mag_0.CLK_DIV_11_mag_new_0.Q0 a_67646_9704# VSS.t332 nfet_03v3 ad=0.172p pd=1.18u as=0.172p ps=1.18u w=0.66u l=0.28u
X89 a_74184_7541# CLK_div_110_mag_0.CLK_DIV_11_mag_new_0.JK_FF_mag_3.nand2_mag_1.IN2 VSS.t346 VSS.t345 nfet_03v3 ad=0.114p pd=0.96u as=0.194p ps=1.76u w=0.44u l=0.28u
X90 VCO_mag_0.Delay_Cell_mag_1.INB VCO_mag_0.Delay_Cell_mag_1.INB.t6 a_65386_20072# VDD_VCO.t131 pfet_03v3 ad=0.26p pd=1.52u as=0.26p ps=1.52u w=1u l=0.56u
X91 LF_mag_0.res_48k_mag_0.B VSS.t427 cap_mim_2f0_m4m5_noshield c_width=25u c_length=25u
X92 a_70188_5529# RST_DIV.t2 a_70028_5529# VSS.t594 nfet_03v3 ad=0.172p pd=1.18u as=0.172p ps=1.18u w=0.66u l=0.28u
X93 CLK_div_110_mag_0.CLK_DIV_11_mag_new_0.JK_FF_mag_1.nand3_mag_1.OUT CLK_div_110_mag_0.CLK_DIV_11_mag_new_0.JK_FF_mag_1.nand3_mag_1.IN1 VDD.t334 VDD.t333 pfet_03v3 ad=0.352p pd=2.48u as=0.208p ps=1.32u w=0.8u l=0.28u
X94 LF_mag_0.res_48k_mag_0.B VSS.t426 cap_mim_2f0_m4m5_noshield c_width=25u c_length=25u
X95 LF_mag_0.res_48k_mag_0.B VSS.t425 cap_mim_2f0_m4m5_noshield c_width=25u c_length=25u
X96 a_72487_4432# CLK_div_110_mag_0.CLK_div_10_mag_0.Q0 a_72327_4432# VSS.t445 nfet_03v3 ad=0.172p pd=1.18u as=0.172p ps=1.18u w=0.66u l=0.28u
X97 CLK_div_110_mag_0.CLK_DIV_11_mag_new_0.JK_FF_mag_1.nand2_mag_4.IN2 CLK_div_110_mag_0.CLK_DIV_11_mag_new_0.JK_FF_mag_1.nand3_mag_1.OUT VDD.t391 VDD.t390 pfet_03v3 ad=0.208p pd=1.32u as=0.352p ps=2.48u w=0.8u l=0.28u
X98 VDD CLK_div_110_mag_0.CLK_DIV_11_mag_new_0.Q1 CLK_div_110_mag_0.CLK_DIV_11_mag_new_0.or_2_mag_3.IN1.t1 VDD.t235 pfet_03v3 ad=0.352p pd=2.48u as=0.208p ps=1.32u w=0.8u l=0.28u
X99 CLK_div_110_mag_0.CLK_DIV_11_mag_new_0.Buffer_delayed_mag_0.Inverter_delayed_mag_0.IN CLK_div_110_mag_0.CLK_DIV_11_mag_new_0.Q2 VDD.t300 VDD.t299 pfet_03v3 ad=0.352p pd=2.48u as=0.352p ps=2.48u w=0.8u l=1u
X100 LF_mag_0.res_48k_mag_0.B VSS.t424 cap_mim_2f0_m4m5_noshield c_width=25u c_length=25u
X101 PFD_layout_0.DFF__1.nand2_2.IN1 PFD_layout_0.DFF__1.nand2_5.OUT a_59418_24365# VSS.t158 nfet_03v3 ad=0.194p pd=1.76u as=0.114p ps=0.96u w=0.44u l=0.28u
X102 VDD CLK_div_110_mag_0.CLK_DIV_11_mag_new_0.Q1 CLK_div_110_mag_0.CLK_DIV_11_mag_new_0.and2_mag_1.GF_INV_MAG_0.IN VDD.t232 pfet_03v3 ad=0.352p pd=2.48u as=0.208p ps=1.32u w=0.8u l=0.28u
X103 VDD VCO_op.t10 CLK_div_110_mag_0.CLK_DIV_11_mag_new_0.JK_FF_mag_1.nand3_mag_2.OUT VDD.t401 pfet_03v3 ad=0.208p pd=1.32u as=0.208p ps=1.32u w=0.8u l=0.28u
X104 VCO_mag_0.VCONT CP_mag_0.inv_0.OUT a_67611_25266# VDD.t153 pfet_03v3 ad=0.13p pd=1.02u as=0.22p ps=1.88u w=0.5u l=0.56u
X105 VDD_VCO VCO_mag_0.Delay_Cell_mag_2.OUTB.t18 VCO_mag_0.Delay_Cell_mag_0.IN VDD_VCO.t114 pfet_03v3 ad=0.22p pd=1.88u as=0.13p ps=1.02u w=0.5u l=0.35u
X106 LF_mag_0.res_48k_mag_0.B VSS.t423 cap_mim_2f0_m4m5_noshield c_width=25u c_length=25u
X107 LF_mag_0.VCNTL a2x1mux_mag_0.SEL VCO_mag_0.VCONT.t20 VSS.t104 nfet_03v3 ad=0.26p pd=1.52u as=0.26p ps=1.52u w=1u l=0.28u
X108 CLK_div_110_mag_0.CLK_DIV_11_mag_new_0.and2_mag_3.OUT CLK_div_110_mag_0.CLK_DIV_11_mag_new_0.and2_mag_3.GF_INV_MAG_0.IN VDD.t592 VDD.t591 pfet_03v3 ad=0.352p pd=2.48u as=0.352p ps=2.48u w=0.8u l=0.28u
X109 VDD CLK_div_110_mag_0.CLK_DIV_11_mag_new_0.Q3 CLK_div_110_mag_0.CLK_DIV_11_mag_new_0.and2_mag_0.GF_INV_MAG_0.IN VDD.t358 pfet_03v3 ad=0.352p pd=2.48u as=0.208p ps=1.32u w=0.8u l=0.28u
X110 CLK_div_110_mag_0.CLK_div_10_mag_0.JK_FF_mag_0.nand3_mag_1.IN1 CLK_div_110_mag_0.CLK_div_10_mag_0.JK_FF_mag_0.nand3_mag_1.OUT a_73051_4432# VSS.t233 nfet_03v3 ad=0.194p pd=1.76u as=0.114p ps=0.96u w=0.44u l=0.28u
X111 VDD CLK_div_110_mag_0.CLK_DIV_11_mag_new_0.Q2 CLK_div_110_mag_0.CLK_DIV_11_mag_new_0.JK_FF_mag_1.QB VDD.t296 pfet_03v3 ad=0.352p pd=2.48u as=0.208p ps=1.32u w=0.8u l=0.28u
X112 CLK_div_110_mag_0.CLK_DIV_11_mag_new_0.JK_FF_mag_2.nand3_mag_0.OUT CLK_div_110_mag_0.CLK_DIV_11_mag_new_0.or_2_mag_3.IN1.t4 a_69333_7501# VSS.t577 nfet_03v3 ad=0.29p pd=2.2u as=0.172p ps=1.18u w=0.66u l=0.28u
X113 CLK_div_110_mag_0.CLK_DIV_11_mag_new_0.and2_mag_1.GF_INV_MAG_0.IN CLK_div_110_mag_0.CLK_DIV_11_mag_new_0.Q1 a_61552_8823# VSS.t246 nfet_03v3 ad=0.194p pd=1.76u as=0.114p ps=0.96u w=0.44u l=0.28u
X114 VDD_VCO VCO_mag_0.Delay_Cell_mag_1.INB.t18 VCO_mag_0.Delay_Cell_mag_1.IN VDD_VCO.t125 pfet_03v3 ad=0.26p pd=1.52u as=0.26p ps=1.52u w=1u l=0.56u
X115 a_73615_4432# CLK_div_110_mag_0.CLK_div_10_mag_0.JK_FF_mag_0.nand3_mag_1.IN1 VSS.t319 VSS.t233 nfet_03v3 ad=0.114p pd=0.96u as=0.194p ps=1.76u w=0.44u l=0.28u
X116 a_63452_24694# PFD_layout_0.nand2_0.IN1 VSS.t75 VSS.t74 nfet_03v3 ad=0.13p pd=1.02u as=0.13p ps=1.02u w=0.5u l=0.28u
X117 VCO_mag_0.VCONT a2x1mux_mag_0.Transmission_gate_mag_1.inv_my_mag_0.OUT LF_mag_0.VCNTL.t9 VDD.t2 pfet_03v3 ad=0.26p pd=1.52u as=0.26p ps=1.52u w=1u l=0.28u
X118 CLK_div_110_mag_0.CLK_DIV_11_mag_new_0.and2_mag_0.OUT CLK_div_110_mag_0.CLK_DIV_11_mag_new_0.and2_mag_0.GF_INV_MAG_0.IN VDD.t267 VDD.t266 pfet_03v3 ad=0.352p pd=2.48u as=0.352p ps=2.48u w=0.8u l=0.28u
X119 PFD_layout_0.DFF__1.nand2_5.OUT PFD_layout_0.DFF__1.nand2_1.IN1 VDD.t420 VDD.t419 pfet_03v3 ad=0.208p pd=1.32u as=0.352p ps=2.48u w=0.8u l=0.28u
X120 VDD CLK_div_110_mag_0.CLK_DIV_11_mag_new_0.JK_FF_mag_3.nand2_mag_3.IN1 CLK_div_110_mag_0.CLK_DIV_11_mag_new_0.JK_FF_mag_3.nand2_mag_4.IN2 VDD.t502 pfet_03v3 ad=0.352p pd=2.48u as=0.208p ps=1.32u w=0.8u l=0.28u
X121 VCO_op_bar VCO_mag_0.GF_INV16_1.IN VDD_VCO.t153 VDD_VCO.t152 pfet_03v3 ad=0.728p pd=3.32u as=0.728p ps=3.32u w=2.8u l=0.35u
X122 CLK_div_110_mag_0.CLK_DIV_11_mag_new_0.or_2_mag_1.GF_INV_MAG_1.IN CLK_div_110_mag_0.CLK_DIV_11_mag_new_0.Q0 VSS.t331 VSS.t330 nfet_03v3 ad=86.8f pd=0.92u as=0.152p ps=1.64u w=0.22u l=0.28u
X123 a_58357_44128# a_58117_42026# VDD.t253 ppolyf_u r_width=0.8u r_length=10u
X124 VDD_VCO VCO_mag_0.Delay_Cell_mag_2.IN.t16 VCO_mag_0.Delay_Cell_mag_2.INB VDD_VCO.t24 pfet_03v3 ad=0.26p pd=1.52u as=0.26p ps=1.52u w=1u l=0.56u
X125 a_65386_20072# VCO_mag_0.Delay_Cell_mag_1.IN VCO_mag_0.Delay_Cell_mag_1.IN VDD_VCO.t140 pfet_03v3 ad=0.26p pd=1.52u as=0.26p ps=1.52u w=1u l=0.56u
X126 PFD_layout_0.DFF__1.nand2_3.OUT PFD_layout_0.DFF__1.nand2_2.OUT VDD.t45 VDD.t44 pfet_03v3 ad=0.208p pd=1.32u as=0.352p ps=2.48u w=0.8u l=0.28u
X127 VDD_VCO a_67077_14631.t12 a_65386_16333# VDD_VCO.t0 pfet_03v3 ad=0.26p pd=1.52u as=0.26p ps=1.52u w=1u l=0.56u
X128 VDD CLK_div_110_mag_0.CLK_div_10_mag_0.JK_FF_mag_3.nand2_mag_3.IN1 CLK_div_110_mag_0.CLK_div_10_mag_0.JK_FF_mag_3.nand2_mag_1.IN2 VDD.t218 pfet_03v3 ad=0.352p pd=2.48u as=0.208p ps=1.32u w=0.8u l=0.28u
X129 pu a_63452_24694# VSS.t15 VSS.t14 nfet_03v3 ad=0.13p pd=1.02u as=0.22p ps=1.88u w=0.5u l=0.28u
X130 a_58943_20071# VCO_mag_0.Delay_Cell_mag_2.INB VCO_mag_0.Delay_Cell_mag_2.INB VDD_VCO.t32 pfet_03v3 ad=0.26p pd=1.52u as=0.26p ps=1.52u w=1u l=0.56u
X131 VSS VCO_mag_0.GF_INV1_1.OUT VCO_mag_0.GF_INV16_1.IN VSS.t289 nfet_03v3 ad=0.308p pd=2.28u as=0.182p ps=1.22u w=0.7u l=0.35u
X132 CLK_div_110_mag_0.CLK_div_10_mag_0.nor_3_mag_0.IN3 CLK_div_110_mag_0.CLK_div_10_mag_0.Buffer_delayed_mag_0.Inverter_delayed_mag_0.IN VDD.t510 VDD.t509 pfet_03v3 ad=0.352p pd=2.48u as=0.352p ps=2.48u w=0.8u l=1u
X133 PFD_layout_0.DFF__1.nand2_5.OUT PFD_layout_0.DFF__1.nand2_3.OUT a_61533_24598# VSS.t541 nfet_03v3 ad=0.194p pd=1.76u as=0.114p ps=0.96u w=0.44u l=0.28u
X134 a_66937_6402# RST_DIV.t3 a_66777_6402# VSS.t595 nfet_03v3 ad=0.172p pd=1.18u as=0.172p ps=1.18u w=0.66u l=0.28u
X135 CLK_div_110_mag_0.CLK_DIV_11_mag_new_0.or_2_mag_3.IN1 CLK_div_110_mag_0.CLK_DIV_11_mag_new_0.JK_FF_mag_2.nand2_mag_4.IN2 VDD.t572 VDD.t571 pfet_03v3 ad=0.208p pd=1.32u as=0.352p ps=2.48u w=0.8u l=0.28u
X136 CLK_div_110_mag_0.CLK_DIV_11_mag_new_0.Buffer_delayed_mag_1.OUT CLK_div_110_mag_0.CLK_DIV_11_mag_new_0.Buffer_delayed_mag_1.Inverter_delayed_mag_0.IN VDD.t506 VDD.t505 pfet_03v3 ad=0.352p pd=2.48u as=0.352p ps=2.48u w=0.8u l=1u
X137 pd a_63591_22645# VSS.t228 VSS.t227 nfet_03v3 ad=0.13p pd=1.02u as=0.13p ps=1.02u w=0.5u l=0.28u
X138 VDD_VCO VCO_mag_0.Delay_Cell_mag_2.INB VCO_mag_0.Delay_Cell_mag_2.IN.t3 VDD_VCO.t29 pfet_03v3 ad=0.26p pd=1.52u as=0.26p ps=1.52u w=1u l=0.56u
X139 VDD CLK_div_110_mag_0.CLK_DIV_11_mag_new_0.JK_FF_mag_1.nand3_mag_1.OUT CLK_div_110_mag_0.CLK_DIV_11_mag_new_0.JK_FF_mag_1.nand3_mag_1.IN1 VDD.t387 pfet_03v3 ad=0.352p pd=2.48u as=0.208p ps=1.32u w=0.8u l=0.28u
X140 LF_mag_0.res_48k_mag_0.B VSS.t422 cap_mim_2f0_m4m5_noshield c_width=25u c_length=25u
X141 VCO_mag_0.GF_INV16_1.IN VCO_mag_0.GF_INV1_1.OUT VSS.t288 VSS.t287 nfet_03v3 ad=0.182p pd=1.22u as=0.308p ps=2.28u w=0.7u l=0.35u
X142 LF_mag_0.VCNTL a2x1mux_mag_0.Transmission_gate_mag_1.inv_my_mag_0.OUT VCO_mag_0.VCONT.t9 VDD.t2 pfet_03v3 ad=0.44p pd=2.88u as=0.26p ps=1.52u w=1u l=0.28u
X143 a_66053_6402# CLK_div_110_mag_0.CLK_DIV_11_mag_new_0.and2_mag_1.OUT.t3 VSS.t176 VSS.t175 nfet_03v3 ad=0.172p pd=1.18u as=0.29p ps=2.2u w=0.66u l=0.28u
X144 CLK_div_110_mag_0.CLK_DIV_11_mag_new_0.JK_FF_mag_1.QB CLK_div_110_mag_0.CLK_DIV_11_mag_new_0.JK_FF_mag_1.nand2_mag_4.IN2 VDD.t217 VDD.t216 pfet_03v3 ad=0.208p pd=1.32u as=0.352p ps=2.48u w=0.8u l=0.28u
X145 CLK_div_110_mag_0.CLK_DIV_11_mag_new_0.JK_FF_mag_1.nand2_mag_3.IN1 VCO_op.t11 VDD.t405 VDD.t404 pfet_03v3 ad=0.352p pd=2.48u as=0.352p ps=2.48u w=0.8u l=0.28u
X146 a_58943_20071# VCO_mag_0.Delay_Cell_mag_2.IN.t14 VCO_mag_0.Delay_Cell_mag_2.IN.t15 VDD_VCO.t25 pfet_03v3 ad=0.26p pd=1.52u as=0.26p ps=1.52u w=1u l=0.56u
X147 a_70028_5529# CLK_div_110_mag_0.CLK_div_10_mag_0.JK_FF_mag_3.nand3_mag_2.OUT VSS.t534 VSS.t533 nfet_03v3 ad=0.172p pd=1.18u as=0.29p ps=2.2u w=0.66u l=0.28u
X148 VDD RST_DIV.t4 CLK_div_110_mag_0.CLK_DIV_11_mag_new_0.JK_FF_mag_0.nand3_mag_1.OUT VDD.t604 pfet_03v3 ad=0.208p pd=1.32u as=0.208p ps=1.32u w=0.8u l=0.28u
X149 LF_mag_0.res_48k_mag_0.B a_58597_42026# VDD.t645 ppolyf_u r_width=0.8u r_length=10u
X150 VDD IPD_.t4 a_67611_25266# VDD.t98 pfet_03v3 ad=0.22p pd=1.88u as=0.13p ps=1.02u w=0.5u l=0.56u
X151 VDD CLK_div_110_mag_0.CLK_div_10_mag_0.JK_FF_mag_3.nand3_mag_1.OUT CLK_div_110_mag_0.CLK_div_10_mag_0.JK_FF_mag_3.nand3_mag_1.IN1 VDD.t425 pfet_03v3 ad=0.352p pd=2.48u as=0.208p ps=1.32u w=0.8u l=0.28u
X152 CLK_div_110_mag_0.CLK_DIV_11_mag_new_0.JK_FF_mag_3.nand3_mag_1.OUT CLK_div_110_mag_0.CLK_DIV_11_mag_new_0.JK_FF_mag_3.nand3_mag_1.IN1 VDD.t616 VDD.t615 pfet_03v3 ad=0.352p pd=2.48u as=0.208p ps=1.32u w=0.8u l=0.28u
X153 CLK_div_110_mag_0.CLK_DIV_11_mag_new_0.JK_FF_mag_3.nand2_mag_4.IN2 CLK_div_110_mag_0.CLK_DIV_11_mag_new_0.JK_FF_mag_3.nand3_mag_1.OUT VDD.t191 VDD.t190 pfet_03v3 ad=0.208p pd=1.32u as=0.352p ps=2.48u w=0.8u l=0.28u
X154 VCO_mag_0.Delay_Cell_mag_1.INB VCO_mag_0.Delay_Cell_mag_0.OUTB.t17 a_65581_17830# VSS.t36 nfet_03v3 ad=0.26p pd=1.52u as=0.26p ps=1.52u w=1u l=0.56u
X155 VSS a_63452_24694# pu.t2 VSS.t11 nfet_03v3 ad=0.22p pd=1.88u as=0.13p ps=1.02u w=0.5u l=0.28u
X156 LF_mag_0.res_48k_mag_0.B VSS.t421 cap_mim_2f0_m4m5_noshield c_width=25u c_length=25u
X157 VCO_mag_0.VCONT a2x1mux_mag_0.Transmission_gate_mag_1.inv_my_mag_0.OUT LF_mag_0.VCNTL.t7 VDD.t2 pfet_03v3 ad=0.26p pd=1.52u as=0.44p ps=2.88u w=1u l=0.28u
X158 CLK_div_110_mag_0.CLK_DIV_11_mag_new_0.Buffer_delayed_mag_1.IN CLK_div_110_mag_0.CLK_DIV_11_mag_new_0.nand3_mag_1.OUT VDD.t422 VDD.t421 pfet_03v3 ad=0.352p pd=2.48u as=0.352p ps=2.48u w=0.8u l=0.28u
X159 a_57397_44128# a_57157_42026# VDD.t650 ppolyf_u r_width=0.8u r_length=10u
X160 a_66777_6402# CLK_div_110_mag_0.CLK_DIV_11_mag_new_0.JK_FF_mag_1.nand3_mag_2.OUT VSS.t49 VSS.t48 nfet_03v3 ad=0.172p pd=1.18u as=0.29p ps=2.2u w=0.66u l=0.28u
X161 VCO_mag_0.Delay_Cell_mag_0.OUT VCO_mag_0.Delay_Cell_mag_0.OUTB.t18 VDD_VCO.t87 VDD_VCO.t86 pfet_03v3 ad=0.26p pd=1.52u as=0.26p ps=1.52u w=1u l=0.56u
X162 VDD PFD_layout_0.nand2_0.IN1 PFD_layout_0.DFF__1.QB VDD.t58 pfet_03v3 ad=0.352p pd=2.48u as=0.208p ps=1.32u w=0.8u l=0.28u
X163 VCO_mag_0.Delay_Cell_mag_2.OUT VCO_mag_0.Delay_Cell_mag_2.IN.t17 a_59138_14091# VSS.t635 nfet_03v3 ad=0.26p pd=1.52u as=0.26p ps=1.52u w=1u l=0.56u
X164 CLK_div_110_mag_0.CLK_DIV_11_mag_new_0.JK_FF_mag_1.nand3_mag_0.OUT CLK_div_110_mag_0.CLK_DIV_11_mag_new_0.JK_FF_mag_1.QB VDD.t310 VDD.t309 pfet_03v3 ad=0.352p pd=2.48u as=0.208p ps=1.32u w=0.8u l=0.28u
X165 CLK_div_110_mag_0.CLK_div_10_mag_0.JK_FF_mag_3.nand3_mag_2.OUT CLK_div_110_mag_0.CLK_div_10_mag_0.Q2 VDD.t668 VDD.t667 pfet_03v3 ad=0.352p pd=2.48u as=0.208p ps=1.32u w=0.8u l=0.28u
X166 CLK_div_110_mag_0.CLK_DIV_11_mag_new_0.JK_FF_mag_3.nand2_mag_3.IN1 VCO_op.t12 VDD.t407 VDD.t406 pfet_03v3 ad=0.352p pd=2.48u as=0.352p ps=2.48u w=0.8u l=0.28u
X167 VCO_mag_0.VCONT a2x1mux_mag_0.Transmission_gate_mag_0.CLK LP_ext.t18 VSS.t512 nfet_03v3 ad=0.26p pd=1.52u as=0.26p ps=1.52u w=1u l=0.28u
X168 CLK_div_110_mag_0.CLK_DIV_11_mag_new_0.JK_FF_mag_1.nand3_mag_1.IN1 CLK_div_110_mag_0.CLK_DIV_11_mag_new_0.JK_FF_mag_1.nand3_mag_0.OUT VDD.t415 VDD.t414 pfet_03v3 ad=0.208p pd=1.32u as=0.352p ps=2.48u w=0.8u l=0.28u
X169 VCO_mag_0.GF_INV1_1.OUT VCO_mag_0.Delay_Cell_mag_1.IN VDD_VCO.t139 VDD_VCO.t138 pfet_03v3 ad=0.165p pd=1.64u as=0.165p ps=1.64u w=0.35u l=0.35u
X170 VDD CLK_div_110_mag_0.CLK_DIV_11_mag_new_0.JK_FF_mag_2.nand2_mag_3.IN1 CLK_div_110_mag_0.CLK_DIV_11_mag_new_0.JK_FF_mag_2.nand2_mag_1.IN2 VDD.t642 pfet_03v3 ad=0.352p pd=2.48u as=0.208p ps=1.32u w=0.8u l=0.28u
X171 CLK_div_110_mag_0.CLK_DIV_11_mag_new_0.JK_FF_mag_1.nand3_mag_1.OUT CLK_div_110_mag_0.CLK_DIV_11_mag_new_0.JK_FF_mag_1.nand3_mag_1.IN1 a_66937_6402# VSS.t317 nfet_03v3 ad=0.29p pd=2.2u as=0.172p ps=1.18u w=0.66u l=0.28u
X172 a_60301_26043# PFD_layout_0.DFF__1.nand2_2.OUT VSS.t55 VSS.t54 nfet_03v3 ad=0.114p pd=0.96u as=0.194p ps=1.76u w=0.44u l=0.28u
X173 VDD_VCO a_67077_18370.t13 a_65386_20072# VDD_VCO.t46 pfet_03v3 ad=0.26p pd=1.52u as=0.26p ps=1.52u w=1u l=0.56u
X174 CLK_div_110_mag_0.CLK_DIV_11_mag_new_0.Q1 CLK_div_110_mag_0.CLK_DIV_11_mag_new_0.JK_FF_mag_2.nand2_mag_1.IN2 VDD.t120 VDD.t119 pfet_03v3 ad=0.208p pd=1.32u as=0.352p ps=2.48u w=0.8u l=0.28u
X175 PFD_layout_0.buffer_mag_0.OUT PFD_layout_0.buffer_mag_0.gf_inv_mag_1.IN VSS.t47 VSS.t46 nfet_03v3 ad=0.26p pd=1.52u as=0.44p ps=2.88u w=1u l=0.35u
X176 CLK_div_110_mag_0.CLK_div_10_mag_0.JK_FF_mag_3.nand2_mag_1.IN2 CLK_div_110_mag_0.CLK_div_10_mag_0.JK_FF_mag_3.nand2_mag_3.IN1 a_70598_4432# VSS.t237 nfet_03v3 ad=0.194p pd=1.76u as=0.114p ps=0.96u w=0.44u l=0.28u
X177 CLK_div_110_mag_0.CLK_DIV_11_mag_new_0.JK_FF_mag_3.nand3_mag_0.OUT CLK_div_110_mag_0.CLK_DIV_11_mag_new_0.JK_FF_mag_3.QB VDD.t114 VDD.t113 pfet_03v3 ad=0.352p pd=2.48u as=0.208p ps=1.32u w=0.8u l=0.28u
X178 LF_mag_0.res_48k_mag_0.B VSS.t420 cap_mim_2f0_m4m5_noshield c_width=25u c_length=25u
X179 LF_mag_0.res_48k_mag_0.B VSS.t419 cap_mim_2f0_m4m5_noshield c_width=25u c_length=25u
X180 CLK_div_110_mag_0.CLK_div_10_mag_0.JK_FF_mag_3.nand2_mag_3.IN1 CLK_div_110_mag_0.CLK_div_10_mag_0.Q1 VDD.t330 VDD.t329 pfet_03v3 ad=0.352p pd=2.48u as=0.352p ps=2.48u w=0.8u l=0.28u
X181 a_66213_6402# VCO_op.t13 a_66053_6402# VSS.t357 nfet_03v3 ad=0.172p pd=1.18u as=0.172p ps=1.18u w=0.66u l=0.28u
X182 LF_mag_0.VCNTL a2x1mux_mag_0.Transmission_gate_mag_1.inv_my_mag_0.OUT VCO_mag_0.VCONT.t8 VDD.t2 pfet_03v3 ad=0.26p pd=1.52u as=0.26p ps=1.52u w=1u l=0.28u
X183 VSS PFD_layout_0.buffer_mag_0.gf_inv_mag_1.IN PFD_layout_0.buffer_mag_0.OUT VSS.t43 nfet_03v3 ad=0.26p pd=1.52u as=0.26p ps=1.52u w=1u l=0.35u
X184 VDD PFD_layout_0.DFF__0.QB PFD_layout_0.buffer_loading_mag_1.IN VDD.t451 pfet_03v3 ad=0.352p pd=2.48u as=0.208p ps=1.32u w=0.8u l=0.28u
X185 a_57877_44128# a_57637_42026# VDD.t566 ppolyf_u r_width=0.8u r_length=10u
X186 VDD VCO_op.t14 CLK_div_110_mag_0.CLK_DIV_11_mag_new_0.JK_FF_mag_2.nand3_mag_2.OUT VDD.t408 pfet_03v3 ad=0.208p pd=1.32u as=0.208p ps=1.32u w=0.8u l=0.28u
X187 VDD_VCO VCO_mag_0.Delay_Cell_mag_0.OUT VCO_mag_0.Delay_Cell_mag_0.OUTB.t3 VDD_VCO.t95 pfet_03v3 ad=0.26p pd=1.52u as=0.26p ps=1.52u w=1u l=0.56u
X188 LP_ext a2x1mux_mag_0.Transmission_gate_mag_0.inv_my_mag_0.OUT VCO_mag_0.VCONT.t28 VDD.t356 pfet_03v3 ad=0.26p pd=1.52u as=0.26p ps=1.52u w=1u l=0.28u
X189 VCO_mag_0.Delay_Cell_mag_2.OUTB VCO_mag_0.Delay_Cell_mag_2.OUTB.t10 a_58943_16333# VDD_VCO.t113 pfet_03v3 ad=0.26p pd=1.52u as=0.26p ps=1.52u w=1u l=0.56u
X190 CLK_div_110_mag_0.CLK_div_10_mag_0.JK_FF_mag_3.nand3_mag_0.OUT CLK_div_110_mag_0.CLK_div_10_mag_0.JK_FF_mag_3.QB VDD.t636 VDD.t635 pfet_03v3 ad=0.352p pd=2.48u as=0.208p ps=1.32u w=0.8u l=0.28u