* NGSPICE file created from nmos_3p3_VDSZE6_flat.ext - technology: gf180mcuC

.subckt nmos_3p3_VDSZE6_flat OUTB OUT VCONT EN VSS VDD
X0 VDD a_2201_n2780.t12 a_510_n1078# VDD.t183 pfet_03v3 ad=0.26p pd=1.52u as=0.26p ps=1.52u w=1u l=0.56u
X1 VDD GF_INV16_1.IN OUTB.t5 VDD.t162 pfet_03v3 ad=0.728p pd=3.32u as=0.728p ps=3.32u w=2.8u l=0.35u
X2 VSS EN.t0 a_7148_n3320# VSS.t66 nfet_03v3 ad=0.26p pd=1.52u as=0.26p ps=1.52u w=1u l=0.56u
X3 a_510_2660# a_2201_958.t12 VDD.t149 VDD.t40 pfet_03v3 ad=0.44p pd=2.88u as=0.26p ps=1.52u w=1u l=0.56u
X4 Delay_Cell_mag_2.IN Delay_Cell_mag_2.INB VDD.t82 VDD.t81 pfet_03v3 ad=0.26p pd=1.52u as=0.26p ps=1.52u w=1u l=0.56u
X5 GF_INV1_1.OUT Delay_Cell_mag_1.IN VDD.t39 VDD.t38 pfet_03v3 ad=0.165p pd=1.64u as=0.165p ps=1.64u w=0.35u l=0.35u
X6 a_6953_2661# Delay_Cell_mag_1.IN Delay_Cell_mag_1.IN VDD.t37 pfet_03v3 ad=0.26p pd=1.52u as=0.26p ps=1.52u w=1u l=0.56u
X7 VDD Delay_Cell_mag_2.OUT.t16 Delay_Cell_mag_2.OUTB.t3 VDD.t45 pfet_03v3 ad=0.26p pd=1.52u as=0.26p ps=1.52u w=1u l=0.56u
X8 VDD GF_INV16_1.IN OUTB.t4 VDD.t159 pfet_03v3 ad=1.23p pd=6.48u as=0.728p ps=3.32u w=2.8u l=0.35u
X9 OUTB GF_INV16_1.IN VSS.t114 VSS.t113 nfet_03v3 ad=0.364p pd=1.92u as=0.616p ps=3.68u w=1.4u l=0.35u
X10 a_6953_2661# Delay_Cell_mag_1.INB.t14 Delay_Cell_mag_1.INB.t15 VDD.t24 pfet_03v3 ad=0.26p pd=1.52u as=0.26p ps=1.52u w=1u l=0.56u
X11 Delay_Cell_mag_0.OUT Delay_Cell_mag_0.IN a_7148_n3320# VSS.t66 nfet_03v3 ad=0.26p pd=1.52u as=0.26p ps=1.52u w=1u l=0.56u
X12 VDD Delay_Cell_mag_0.OUTB.t16 Delay_Cell_mag_0.OUT VDD.t3 pfet_03v3 ad=0.26p pd=1.52u as=0.26p ps=1.52u w=1u l=0.56u
X13 VDD Delay_Cell_mag_2.OUT.t17 Delay_Cell_mag_0.INB VDD.t48 pfet_03v3 ad=0.13p pd=1.02u as=0.13p ps=1.02u w=0.5u l=0.35u
X14 a_705_418# Delay_Cell_mag_1.INB.t16 Delay_Cell_mag_2.IN.t12 VSS.t23 nfet_03v3 ad=0.26p pd=1.52u as=0.26p ps=1.52u w=1u l=0.56u
X15 VDD a_2201_958.t13 a_510_2660# VDD.t86 pfet_03v3 ad=0.26p pd=1.52u as=0.26p ps=1.52u w=1u l=0.56u
X16 VDD Delay_Cell_mag_2.IN.t16 Delay_Cell_mag_2.INB VDD.t80 pfet_03v3 ad=0.26p pd=1.52u as=0.26p ps=1.52u w=1u l=0.56u
X17 Delay_Cell_mag_1.IN Delay_Cell_mag_0.OUT a_7148_419# VSS.t5 nfet_03v3 ad=0.26p pd=1.52u as=0.26p ps=1.52u w=1u l=0.56u
X18 OUTB GF_INV16_1.IN VSS.t112 VSS.t111 nfet_03v3 ad=0.364p pd=1.92u as=0.364p ps=1.92u w=1.4u l=0.35u
X19 Delay_Cell_mag_2.INB Delay_Cell_mag_1.IN a_705_418# VSS.t32 nfet_03v3 ad=0.26p pd=1.52u as=0.26p ps=1.52u w=1u l=0.56u
X20 VSS VCONT.t2 a_2201_958.t0 VSS.t17 nfet_03v3 ad=0.26p pd=1.52u as=0.26p ps=1.52u w=1u l=0.56u
X21 Delay_Cell_mag_0.OUTB Delay_Cell_mag_0.OUTB.t10 a_6953_n1078# VDD.t11 pfet_03v3 ad=0.26p pd=1.52u as=0.26p ps=1.52u w=1u l=0.56u
X22 a_7148_419# Delay_Cell_mag_0.OUTB.t18 Delay_Cell_mag_1.INB.t4 VSS.t59 nfet_03v3 ad=0.26p pd=1.52u as=0.26p ps=1.52u w=1u l=0.56u
X23 a_7148_n3320# Delay_Cell_mag_0.INB Delay_Cell_mag_0.OUTB.t15 VSS.t129 nfet_03v3 ad=0.26p pd=1.52u as=0.26p ps=1.52u w=1u l=0.56u
X24 OUT GF_INV16_2.IN VSS.t141 VSS.t140 nfet_03v3 ad=0.364p pd=1.92u as=0.616p ps=3.68u w=1.4u l=0.35u
X25 Delay_Cell_mag_2.IN Delay_Cell_mag_2.IN.t10 a_510_2660# VDD.t81 pfet_03v3 ad=0.26p pd=1.52u as=0.26p ps=1.52u w=1u l=0.56u
X26 GF_INV1_0.OUT Delay_Cell_mag_1.INB.t17 VDD.t128 VDD.t127 pfet_03v3 ad=0.165p pd=1.64u as=0.165p ps=1.64u w=0.35u l=0.35u
X27 VSS GF_INV1_1.OUT GF_INV16_1.IN VSS.t86 nfet_03v3 ad=0.308p pd=2.28u as=0.182p ps=1.22u w=0.7u l=0.35u
X28 Delay_Cell_mag_0.IN Delay_Cell_mag_2.OUTB.t16 VDD.t110 VDD.t109 pfet_03v3 ad=0.13p pd=1.02u as=0.13p ps=1.02u w=0.5u l=0.35u
X29 a_705_418# EN.t1 VSS.t65 VSS.t27 nfet_03v3 ad=0.26p pd=1.52u as=0.44p ps=2.88u w=1u l=0.56u
X30 VDD a_8644_959.t6 a_8644_959.t7 VDD.t21 pfet_03v3 ad=0.26p pd=1.52u as=0.26p ps=1.52u w=1u l=0.56u
X31 Delay_Cell_mag_2.OUTB Delay_Cell_mag_2.OUTB.t14 a_510_n1078# VDD.t51 pfet_03v3 ad=0.26p pd=1.52u as=0.26p ps=1.52u w=1u l=0.56u
X32 Delay_Cell_mag_0.IN Delay_Cell_mag_2.OUTB.t18 VDD.t112 VDD.t111 pfet_03v3 ad=0.13p pd=1.02u as=0.22p ps=1.88u w=0.5u l=0.35u
X33 a_6953_n1078# a_8644_n2780.t13 VDD.t95 VDD.t90 pfet_03v3 ad=0.26p pd=1.52u as=0.26p ps=1.52u w=1u l=0.56u
X34 a_705_n3320# EN.t2 VSS.t64 VSS.t63 nfet_03v3 ad=0.26p pd=1.52u as=0.26p ps=1.52u w=1u l=0.56u
X35 Delay_Cell_mag_0.OUT Delay_Cell_mag_0.OUT a_6953_n1078# VDD.t13 pfet_03v3 ad=0.26p pd=1.52u as=0.44p ps=2.88u w=1u l=0.56u
X36 a_705_418# a_705_418# a_705_418# VSS.t120 nfet_03v3 ad=0.44p pd=2.88u as=4.52p ps=27u w=1u l=0.56u
X37 a_7148_419# a_7148_419# a_7148_419# VSS.t12 nfet_03v3 ad=0.26p pd=1.52u as=4.52p ps=27u w=1u l=0.56u
X38 a_510_2660# Delay_Cell_mag_2.INB Delay_Cell_mag_2.INB VDD.t80 pfet_03v3 ad=0.26p pd=1.52u as=0.26p ps=1.52u w=1u l=0.56u
X39 a_705_n3320# Delay_Cell_mag_2.IN.t18 Delay_Cell_mag_2.OUT.t15 VSS.t63 nfet_03v3 ad=0.26p pd=1.52u as=0.26p ps=1.52u w=1u l=0.56u
X40 a_510_n1078# Delay_Cell_mag_2.OUTB.t12 Delay_Cell_mag_2.OUTB.t13 VDD.t56 pfet_03v3 ad=0.26p pd=1.52u as=0.26p ps=1.52u w=1u l=0.56u
X41 a_7148_n3320# a_7148_n3320# a_7148_n3320# VSS.t1 nfet_03v3 ad=0.44p pd=2.88u as=4.52p ps=27u w=1u l=0.56u
X42 GF_INV16_1.IN GF_INV1_1.OUT VDD.t108 VDD.t107 pfet_03v3 ad=0.364p pd=1.92u as=0.616p ps=3.68u w=1.4u l=0.35u
X43 VSS VCONT.t3 a_2201_n2780.t1 VSS.t20 nfet_03v3 ad=0.26p pd=1.52u as=0.26p ps=1.52u w=1u l=0.56u
X44 Delay_Cell_mag_0.OUTB Delay_Cell_mag_0.OUT VDD.t12 VDD.t11 pfet_03v3 ad=0.26p pd=1.52u as=0.26p ps=1.52u w=1u l=0.56u
X45 VDD Delay_Cell_mag_2.OUTB.t19 Delay_Cell_mag_0.IN VDD.t113 pfet_03v3 ad=0.13p pd=1.02u as=0.13p ps=1.02u w=0.5u l=0.35u
X46 a_6953_n1078# Delay_Cell_mag_0.OUT Delay_Cell_mag_0.OUT VDD.t10 pfet_03v3 ad=0.26p pd=1.52u as=0.26p ps=1.52u w=1u l=0.56u
X47 GF_INV16_1.IN GF_INV1_1.OUT VSS.t85 VSS.t84 nfet_03v3 ad=0.182p pd=1.22u as=0.308p ps=2.28u w=0.7u l=0.35u
X48 VDD GF_INV1_0.OUT GF_INV16_2.IN VDD.t137 pfet_03v3 ad=0.616p pd=3.68u as=0.364p ps=1.92u w=1.4u l=0.35u
X49 a_6953_2661# a_8644_959.t14 VDD.t140 VDD.t21 pfet_03v3 ad=0.26p pd=1.52u as=0.26p ps=1.52u w=1u l=0.56u
X50 Delay_Cell_mag_1.INB Delay_Cell_mag_1.IN VDD.t36 VDD.t35 pfet_03v3 ad=0.26p pd=1.52u as=0.26p ps=1.52u w=1u l=0.56u
X51 Delay_Cell_mag_2.OUTB Delay_Cell_mag_2.OUT.t18 VDD.t52 VDD.t51 pfet_03v3 ad=0.26p pd=1.52u as=0.26p ps=1.52u w=1u l=0.56u
X52 a_7148_419# Delay_Cell_mag_0.OUT Delay_Cell_mag_1.IN VSS.t4 nfet_03v3 ad=0.26p pd=1.52u as=0.26p ps=1.52u w=1u l=0.56u
X53 VDD a_8644_n2780.t5 a_8644_n2780.t6 VDD.t90 pfet_03v3 ad=0.26p pd=1.52u as=0.26p ps=1.52u w=1u l=0.56u
X54 Delay_Cell_mag_2.OUTB Delay_Cell_mag_2.INB a_705_n3320# VSS.t20 nfet_03v3 ad=0.26p pd=1.52u as=0.26p ps=1.52u w=1u l=0.56u
X55 Delay_Cell_mag_0.OUT Delay_Cell_mag_0.OUTB.t19 VDD.t131 VDD.t13 pfet_03v3 ad=0.26p pd=1.52u as=0.44p ps=2.88u w=1u l=0.56u
X56 a_705_418# a_705_418# a_705_418# VSS.t119 nfet_03v3 ad=0.26p pd=1.52u as=0 ps=0 w=1u l=0.56u
X57 VDD a_2201_958.t8 a_2201_958.t9 VDD.t83 pfet_03v3 ad=0.26p pd=1.52u as=0.26p ps=1.52u w=1u l=0.56u
X58 VDD a_8644_959.t15 a_6953_2661# VDD.t19 pfet_03v3 ad=0.26p pd=1.52u as=0.26p ps=1.52u w=1u l=0.56u
X59 Delay_Cell_mag_1.INB Delay_Cell_mag_0.OUTB.t20 a_7148_419# VSS.t51 nfet_03v3 ad=0.26p pd=1.52u as=0.26p ps=1.52u w=1u l=0.56u
X60 VDD a_2201_n2780.t14 a_510_n1078# VDD.t179 pfet_03v3 ad=0.26p pd=1.52u as=0.26p ps=1.52u w=1u l=0.56u
X61 VDD Delay_Cell_mag_2.OUT.t19 Delay_Cell_mag_0.INB VDD.t53 pfet_03v3 ad=0.22p pd=1.88u as=0.13p ps=1.02u w=0.5u l=0.35u
X62 VSS VCONT.t5 a_8644_959.t10 VSS.t5 nfet_03v3 ad=0.26p pd=1.52u as=0.26p ps=1.52u w=1u l=0.56u
X63 a_705_418# Delay_Cell_mag_1.IN Delay_Cell_mag_2.INB VSS.t31 nfet_03v3 ad=0.26p pd=1.52u as=0.26p ps=1.52u w=1u l=0.56u
X64 Delay_Cell_mag_0.OUTB Delay_Cell_mag_0.OUTB.t8 a_6953_n1078# VDD.t8 pfet_03v3 ad=0.26p pd=1.52u as=0.26p ps=1.52u w=1u l=0.56u
X65 VSS EN.t3 a_705_418# VSS.t32 nfet_03v3 ad=0.26p pd=1.52u as=0.26p ps=1.52u w=1u l=0.56u
X66 VDD a_8644_959.t16 a_6953_2661# VDD.t17 pfet_03v3 ad=0.26p pd=1.52u as=0.26p ps=1.52u w=1u l=0.56u
X67 VDD Delay_Cell_mag_1.IN Delay_Cell_mag_1.INB.t2 VDD.t32 pfet_03v3 ad=0.26p pd=1.52u as=0.26p ps=1.52u w=1u l=0.56u
X68 GF_INV1_1.OUT Delay_Cell_mag_1.IN VSS.t30 VSS.t29 nfet_03v3 ad=0.308p pd=2.28u as=0.308p ps=2.28u w=0.7u l=0.35u
X69 VDD Delay_Cell_mag_2.OUT.t20 Delay_Cell_mag_2.OUTB.t1 VDD.t56 pfet_03v3 ad=0.26p pd=1.52u as=0.26p ps=1.52u w=1u l=0.56u
X70 VDD GF_INV16_2.IN OUT.t7 VDD.t194 pfet_03v3 ad=0.728p pd=3.32u as=0.728p ps=3.32u w=2.8u l=0.35u
X71 a_7148_419# EN.t4 VSS.t60 VSS.t59 nfet_03v3 ad=0.26p pd=1.52u as=0.44p ps=2.88u w=1u l=0.56u
X72 Delay_Cell_mag_2.OUT Delay_Cell_mag_2.IN.t19 a_705_n3320# VSS.t118 nfet_03v3 ad=0.26p pd=1.52u as=0.26p ps=1.52u w=1u l=0.56u
X73 VDD Delay_Cell_mag_0.OUTB.t22 Delay_Cell_mag_0.OUT VDD.t10 pfet_03v3 ad=0.26p pd=1.52u as=0.26p ps=1.52u w=1u l=0.56u
X74 VDD GF_INV16_2.IN OUT.t6 VDD.t191 pfet_03v3 ad=1.23p pd=6.48u as=0.728p ps=3.32u w=2.8u l=0.35u
X75 Delay_Cell_mag_1.INB Delay_Cell_mag_1.INB.t12 a_6953_2661# VDD.t35 pfet_03v3 ad=0.26p pd=1.52u as=0.26p ps=1.52u w=1u l=0.56u
X76 VSS EN.t5 a_705_n3320# VSS.t56 nfet_03v3 ad=0.26p pd=1.52u as=0.26p ps=1.52u w=1u l=0.56u
X77 a_705_n3320# Delay_Cell_mag_2.INB Delay_Cell_mag_2.OUTB.t6 VSS.t8 nfet_03v3 ad=0.26p pd=1.52u as=0.26p ps=1.52u w=1u l=0.56u
X78 a_510_2660# a_2201_958.t15 VDD.t152 VDD.t83 pfet_03v3 ad=0.26p pd=1.52u as=0.26p ps=1.52u w=1u l=0.56u
X79 Delay_Cell_mag_2.INB Delay_Cell_mag_2.IN.t20 VDD.t168 VDD.t79 pfet_03v3 ad=0.26p pd=1.52u as=0.26p ps=1.52u w=1u l=0.56u
X80 VSS VCONT.t8 a_8644_959.t9 VSS.t12 nfet_03v3 ad=0.44p pd=2.88u as=0.26p ps=1.52u w=1u l=0.56u
X81 Delay_Cell_mag_0.IN Delay_Cell_mag_2.OUTB.t20 VSS.t90 VSS.t89 nfet_03v3 ad=0.26p pd=1.52u as=0.26p ps=1.52u w=1u l=0.35u
X82 Delay_Cell_mag_0.INB Delay_Cell_mag_2.OUT.t21 VSS.t70 VSS.t69 nfet_03v3 ad=0.26p pd=1.52u as=0.26p ps=1.52u w=1u l=0.35u
X83 Delay_Cell_mag_0.INB Delay_Cell_mag_2.OUT.t22 VSS.t72 VSS.t71 nfet_03v3 ad=0.26p pd=1.52u as=0.44p ps=2.88u w=1u l=0.35u
X84 OUT GF_INV16_2.IN VSS.t139 VSS.t138 nfet_03v3 ad=0.364p pd=1.92u as=0.364p ps=1.92u w=1.4u l=0.35u
X85 Delay_Cell_mag_0.IN Delay_Cell_mag_2.OUTB.t21 VSS.t92 VSS.t91 nfet_03v3 ad=0.26p pd=1.52u as=0.44p ps=2.88u w=1u l=0.35u
X86 a_7148_n3320# Delay_Cell_mag_0.INB Delay_Cell_mag_0.OUTB.t14 VSS.t10 nfet_03v3 ad=0.26p pd=1.52u as=0.26p ps=1.52u w=1u l=0.56u
X87 Delay_Cell_mag_2.OUT Delay_Cell_mag_2.IN.t21 a_705_n3320# VSS.t56 nfet_03v3 ad=0.26p pd=1.52u as=0.26p ps=1.52u w=1u l=0.56u
X88 Delay_Cell_mag_0.OUTB Delay_Cell_mag_0.OUT VDD.t9 VDD.t8 pfet_03v3 ad=0.26p pd=1.52u as=0.26p ps=1.52u w=1u l=0.56u
X89 GF_INV1_0.OUT Delay_Cell_mag_1.INB.t19 VSS.t97 VSS.t96 nfet_03v3 ad=0.308p pd=2.28u as=0.308p ps=2.28u w=0.7u l=0.35u
X90 a_6953_2661# Delay_Cell_mag_1.INB.t10 Delay_Cell_mag_1.INB.t11 VDD.t32 pfet_03v3 ad=0.26p pd=1.52u as=0.26p ps=1.52u w=1u l=0.56u
X91 VSS GF_INV16_1.IN OUTB.t1 VSS.t108 nfet_03v3 ad=0.364p pd=1.92u as=0.364p ps=1.92u w=1.4u l=0.35u
X92 a_705_n3320# a_705_n3320# a_705_n3320# VSS.t26 nfet_03v3 ad=0.44p pd=2.88u as=4.52p ps=27u w=1u l=0.56u
X93 a_705_418# Delay_Cell_mag_1.INB.t20 Delay_Cell_mag_2.IN.t13 VSS.t98 nfet_03v3 ad=0.26p pd=1.52u as=0.26p ps=1.52u w=1u l=0.56u
X94 Delay_Cell_mag_2.OUTB Delay_Cell_mag_2.OUTB.t10 a_510_n1078# VDD.t59 pfet_03v3 ad=0.26p pd=1.52u as=0.26p ps=1.52u w=1u l=0.56u
X95 VDD a_2201_958.t16 a_510_2660# VDD.t43 pfet_03v3 ad=0.26p pd=1.52u as=0.26p ps=1.52u w=1u l=0.56u
X96 Delay_Cell_mag_0.OUT Delay_Cell_mag_0.OUT a_6953_n1078# VDD.t7 pfet_03v3 ad=0.26p pd=1.52u as=0.26p ps=1.52u w=1u l=0.56u
X97 a_7148_419# Delay_Cell_mag_0.OUTB.t23 Delay_Cell_mag_1.INB.t6 VSS.t42 nfet_03v3 ad=0.26p pd=1.52u as=0.26p ps=1.52u w=1u l=0.56u
X98 VSS GF_INV16_1.IN OUTB.t0 VSS.t105 nfet_03v3 ad=0.616p pd=3.68u as=0.364p ps=1.92u w=1.4u l=0.35u
X99 Delay_Cell_mag_2.IN Delay_Cell_mag_1.INB.t21 a_705_418# VSS.t39 nfet_03v3 ad=0.26p pd=1.52u as=0.26p ps=1.52u w=1u l=0.56u
X100 VDD Delay_Cell_mag_2.IN.t22 Delay_Cell_mag_2.INB VDD.t78 pfet_03v3 ad=0.26p pd=1.52u as=0.26p ps=1.52u w=1u l=0.56u
X101 a_7148_n3320# EN.t6 VSS.t54 VSS.t53 nfet_03v3 ad=0.26p pd=1.52u as=0.44p ps=2.88u w=1u l=0.56u
X102 VDD Delay_Cell_mag_2.OUTB.t23 Delay_Cell_mag_0.IN VDD.t116 pfet_03v3 ad=0.22p pd=1.88u as=0.13p ps=1.02u w=0.5u l=0.35u
X103 a_510_n1078# Delay_Cell_mag_2.OUT.t6 Delay_Cell_mag_2.OUT.t7 VDD.t119 pfet_03v3 ad=0.26p pd=1.52u as=0.26p ps=1.52u w=1u l=0.56u
X104 VSS VCONT.t10 a_2201_958.t10 VSS.t119 nfet_03v3 ad=0.44p pd=2.88u as=0.26p ps=1.52u w=1u l=0.56u
X105 a_510_n1078# a_2201_n2780.t16 VDD.t178 VDD.t175 pfet_03v3 ad=0.26p pd=1.52u as=0.26p ps=1.52u w=1u l=0.56u
X106 VSS Delay_Cell_mag_2.OUTB.t24 Delay_Cell_mag_0.IN VSS.t93 nfet_03v3 ad=0.26p pd=1.52u as=0.26p ps=1.52u w=1u l=0.35u
X107 VSS Delay_Cell_mag_2.OUT.t23 Delay_Cell_mag_0.INB VSS.t73 nfet_03v3 ad=0.26p pd=1.52u as=0.26p ps=1.52u w=1u l=0.35u
X108 Delay_Cell_mag_2.INB Delay_Cell_mag_2.INB a_510_2660# VDD.t79 pfet_03v3 ad=0.26p pd=1.52u as=0.26p ps=1.52u w=1u l=0.56u
X109 VDD Delay_Cell_mag_1.INB.t22 Delay_Cell_mag_1.IN VDD.t31 pfet_03v3 ad=0.26p pd=1.52u as=0.26p ps=1.52u w=1u l=0.56u
X110 VSS EN.t7 a_7148_419# VSS.t51 nfet_03v3 ad=0.26p pd=1.52u as=0.26p ps=1.52u w=1u l=0.56u
X111 a_7148_n3320# Delay_Cell_mag_0.IN Delay_Cell_mag_0.OUT VSS.t53 nfet_03v3 ad=0.26p pd=1.52u as=0.26p ps=1.52u w=1u l=0.56u
X112 a_6953_n1078# Delay_Cell_mag_0.OUTB.t6 Delay_Cell_mag_0.OUTB.t7 VDD.t4 pfet_03v3 ad=0.26p pd=1.52u as=0.26p ps=1.52u w=1u l=0.56u
X113 a_705_418# EN.t8 VSS.t50 VSS.t31 nfet_03v3 ad=0.26p pd=1.52u as=0.26p ps=1.52u w=1u l=0.56u
X114 VSS VCONT.t11 a_2201_n2780.t10 VSS.t25 nfet_03v3 ad=0.44p pd=2.88u as=0.26p ps=1.52u w=1u l=0.56u
X115 VSS EN.t9 a_7148_n3320# VSS.t47 nfet_03v3 ad=0.26p pd=1.52u as=0.26p ps=1.52u w=1u l=0.56u
X116 Delay_Cell_mag_2.OUTB Delay_Cell_mag_2.OUT.t24 VDD.t60 VDD.t59 pfet_03v3 ad=0.26p pd=1.52u as=0.26p ps=1.52u w=1u l=0.56u
X117 a_705_n3320# a_705_n3320# a_705_n3320# VSS.t25 nfet_03v3 ad=0.26p pd=1.52u as=0 ps=0 w=1u l=0.56u
X118 Delay_Cell_mag_1.IN Delay_Cell_mag_1.INB.t23 VDD.t145 VDD.t28 pfet_03v3 ad=0.26p pd=1.52u as=0.26p ps=1.52u w=1u l=0.56u
X119 Delay_Cell_mag_0.OUT Delay_Cell_mag_0.OUTB.t24 VDD.t134 VDD.t7 pfet_03v3 ad=0.26p pd=1.52u as=0.26p ps=1.52u w=1u l=0.56u
X120 Delay_Cell_mag_0.OUTB Delay_Cell_mag_0.INB a_7148_n3320# VSS.t47 nfet_03v3 ad=0.26p pd=1.52u as=0.26p ps=1.52u w=1u l=0.56u
X121 a_510_2660# Delay_Cell_mag_2.INB Delay_Cell_mag_2.INB VDD.t78 pfet_03v3 ad=0.26p pd=1.52u as=0.26p ps=1.52u w=1u l=0.56u
X122 VDD GF_INV1_1.OUT GF_INV16_1.IN VDD.t104 pfet_03v3 ad=0.616p pd=3.68u as=0.364p ps=1.92u w=1.4u l=0.35u
X123 GF_INV16_2.IN GF_INV1_0.OUT VDD.t136 VDD.t135 pfet_03v3 ad=0.364p pd=1.92u as=0.616p ps=3.68u w=1.4u l=0.35u
X124 VDD Delay_Cell_mag_2.OUTB.t25 Delay_Cell_mag_2.OUT.t9 VDD.t119 pfet_03v3 ad=0.26p pd=1.52u as=0.26p ps=1.52u w=1u l=0.56u
X125 a_510_n1078# Delay_Cell_mag_2.OUT.t4 Delay_Cell_mag_2.OUT.t5 VDD.t122 pfet_03v3 ad=0.26p pd=1.52u as=0.26p ps=1.52u w=1u l=0.56u
X126 OUTB GF_INV16_1.IN VDD.t158 VDD.t157 pfet_03v3 ad=0.728p pd=3.32u as=1.23p ps=6.48u w=2.8u l=0.35u
X127 VDD a_8644_n2780.t14 a_6953_n1078# VDD.t88 pfet_03v3 ad=0.26p pd=1.52u as=0.26p ps=1.52u w=1u l=0.56u
X128 Delay_Cell_mag_1.IN Delay_Cell_mag_1.INB.t24 VDD.t146 VDD.t27 pfet_03v3 ad=0.26p pd=1.52u as=0.26p ps=1.52u w=1u l=0.56u
X129 Delay_Cell_mag_2.OUT Delay_Cell_mag_2.OUT.t2 a_510_n1078# VDD.t125 pfet_03v3 ad=0.26p pd=1.52u as=0.44p ps=2.88u w=1u l=0.56u
X130 VDD a_2201_n2780.t6 a_2201_n2780.t7 VDD.t175 pfet_03v3 ad=0.26p pd=1.52u as=0.26p ps=1.52u w=1u l=0.56u
X131 Delay_Cell_mag_2.IN Delay_Cell_mag_2.INB VDD.t77 VDD.t76 pfet_03v3 ad=0.26p pd=1.52u as=0.26p ps=1.52u w=1u l=0.56u
X132 a_6953_2661# Delay_Cell_mag_1.IN Delay_Cell_mag_1.IN VDD.t31 pfet_03v3 ad=0.26p pd=1.52u as=0.26p ps=1.52u w=1u l=0.56u
X133 Delay_Cell_mag_1.INB Delay_Cell_mag_1.IN VDD.t30 VDD.t29 pfet_03v3 ad=0.26p pd=1.52u as=0.44p ps=2.88u w=1u l=0.56u
X134 VDD Delay_Cell_mag_0.OUT Delay_Cell_mag_0.OUTB.t1 VDD.t4 pfet_03v3 ad=0.26p pd=1.52u as=0.26p ps=1.52u w=1u l=0.56u
X135 OUTB GF_INV16_1.IN VDD.t156 VDD.t155 pfet_03v3 ad=0.728p pd=3.32u as=0.728p ps=3.32u w=2.8u l=0.35u
X136 VDD Delay_Cell_mag_2.INB Delay_Cell_mag_2.IN.t1 VDD.t73 pfet_03v3 ad=0.26p pd=1.52u as=0.26p ps=1.52u w=1u l=0.56u
X137 a_6953_n1078# a_8644_n2780.t15 VDD.t99 VDD.t98 pfet_03v3 ad=0.44p pd=2.88u as=0.26p ps=1.52u w=1u l=0.56u
X138 Delay_Cell_mag_1.IN Delay_Cell_mag_0.OUT a_7148_419# VSS.t3 nfet_03v3 ad=0.26p pd=1.52u as=0.26p ps=1.52u w=1u l=0.56u
X139 VSS GF_INV1_0.OUT GF_INV16_2.IN VSS.t102 nfet_03v3 ad=0.308p pd=2.28u as=0.182p ps=1.22u w=0.7u l=0.35u
X140 VSS EN.t10 a_705_n3320# VSS.t44 nfet_03v3 ad=0.26p pd=1.52u as=0.26p ps=1.52u w=1u l=0.56u
X141 OUT GF_INV16_2.IN VDD.t190 VDD.t189 pfet_03v3 ad=0.728p pd=3.32u as=1.23p ps=6.48u w=2.8u l=0.35u
X142 VDD Delay_Cell_mag_2.INB Delay_Cell_mag_2.IN.t0 VDD.t70 pfet_03v3 ad=0.26p pd=1.52u as=0.26p ps=1.52u w=1u l=0.56u
X143 Delay_Cell_mag_1.IN Delay_Cell_mag_1.IN a_6953_2661# VDD.t28 pfet_03v3 ad=0.26p pd=1.52u as=0.26p ps=1.52u w=1u l=0.56u
X144 a_7148_419# EN.t11 VSS.t43 VSS.t42 nfet_03v3 ad=0.26p pd=1.52u as=0.26p ps=1.52u w=1u l=0.56u
X145 VSS EN.t12 a_705_418# VSS.t39 nfet_03v3 ad=0.26p pd=1.52u as=0.26p ps=1.52u w=1u l=0.56u
X146 a_7148_419# a_7148_419# a_7148_419# VSS.t131 nfet_03v3 ad=0.44p pd=2.88u as=0 ps=0 w=1u l=0.56u
X147 VDD Delay_Cell_mag_2.OUTB.t26 Delay_Cell_mag_2.OUT.t10 VDD.t122 pfet_03v3 ad=0.26p pd=1.52u as=0.26p ps=1.52u w=1u l=0.56u
X148 Delay_Cell_mag_2.OUTB Delay_Cell_mag_2.INB a_705_n3320# VSS.t44 nfet_03v3 ad=0.26p pd=1.52u as=0.26p ps=1.52u w=1u l=0.56u
X149 Delay_Cell_mag_1.IN Delay_Cell_mag_1.IN a_6953_2661# VDD.t27 pfet_03v3 ad=0.26p pd=1.52u as=0.26p ps=1.52u w=1u l=0.56u
X150 Delay_Cell_mag_2.INB Delay_Cell_mag_1.IN a_705_418# VSS.t28 nfet_03v3 ad=0.26p pd=1.52u as=0.26p ps=1.52u w=1u l=0.56u
X151 Delay_Cell_mag_2.OUT Delay_Cell_mag_2.OUTB.t27 VDD.t126 VDD.t125 pfet_03v3 ad=0.26p pd=1.52u as=0.44p ps=2.88u w=1u l=0.56u
X152 Delay_Cell_mag_0.OUT Delay_Cell_mag_0.IN a_7148_n3320# VSS.t82 nfet_03v3 ad=0.26p pd=1.52u as=0.26p ps=1.52u w=1u l=0.56u
X153 Delay_Cell_mag_2.IN Delay_Cell_mag_2.IN.t8 a_510_2660# VDD.t76 pfet_03v3 ad=0.26p pd=1.52u as=0.26p ps=1.52u w=1u l=0.56u
X154 Delay_Cell_mag_1.INB Delay_Cell_mag_1.INB.t8 a_6953_2661# VDD.t29 pfet_03v3 ad=0.26p pd=1.52u as=0.44p ps=2.88u w=1u l=0.56u
X155 VSS Delay_Cell_mag_2.OUTB.t28 Delay_Cell_mag_0.IN VSS.t79 nfet_03v3 ad=0.44p pd=2.88u as=0.26p ps=1.52u w=1u l=0.35u
X156 VSS Delay_Cell_mag_2.OUT.t26 Delay_Cell_mag_0.INB VSS.t76 nfet_03v3 ad=0.44p pd=2.88u as=0.26p ps=1.52u w=1u l=0.35u
X157 VSS GF_INV16_2.IN OUT.t1 VSS.t135 nfet_03v3 ad=0.364p pd=1.92u as=0.364p ps=1.92u w=1.4u l=0.35u
X158 a_7148_n3320# EN.t13 VSS.t38 VSS.t37 nfet_03v3 ad=0.26p pd=1.52u as=0.26p ps=1.52u w=1u l=0.56u
X159 a_510_2660# Delay_Cell_mag_2.IN.t6 Delay_Cell_mag_2.IN.t7 VDD.t73 pfet_03v3 ad=0.26p pd=1.52u as=0.26p ps=1.52u w=1u l=0.56u
X160 a_705_n3320# Delay_Cell_mag_2.INB Delay_Cell_mag_2.OUTB.t4 VSS.t83 nfet_03v3 ad=0.26p pd=1.52u as=0.26p ps=1.52u w=1u l=0.56u
X161 VSS GF_INV16_2.IN OUT.t0 VSS.t132 nfet_03v3 ad=0.616p pd=3.68u as=0.364p ps=1.92u w=1.4u l=0.35u
X162 Delay_Cell_mag_2.INB Delay_Cell_mag_2.IN.t24 VDD.t165 VDD.t69 pfet_03v3 ad=0.26p pd=1.52u as=0.44p ps=2.88u w=1u l=0.56u
X163 VSS VCONT.t14 a_8644_n2780.t10 VSS.t0 nfet_03v3 ad=0.44p pd=2.88u as=0.26p ps=1.52u w=1u l=0.56u
X164 VDD a_8644_n2780.t1 a_8644_n2780.t2 VDD.t98 pfet_03v3 ad=0.44p pd=2.88u as=0.26p ps=1.52u w=1u l=0.56u
X165 a_7148_n3320# Delay_Cell_mag_0.IN Delay_Cell_mag_0.OUT VSS.t37 nfet_03v3 ad=0.26p pd=1.52u as=0.26p ps=1.52u w=1u l=0.56u
X166 a_510_2660# Delay_Cell_mag_2.IN.t4 Delay_Cell_mag_2.IN.t5 VDD.t70 pfet_03v3 ad=0.26p pd=1.52u as=0.26p ps=1.52u w=1u l=0.56u
X167 a_510_n1078# a_2201_n2780.t17 VDD.t174 VDD.t171 pfet_03v3 ad=0.44p pd=2.88u as=0.26p ps=1.52u w=1u l=0.56u
X168 Delay_Cell_mag_2.OUT Delay_Cell_mag_2.OUT.t0 a_510_n1078# VDD.t65 pfet_03v3 ad=0.26p pd=1.52u as=0.26p ps=1.52u w=1u l=0.56u
X169 a_7148_n3320# a_7148_n3320# a_7148_n3320# VSS.t0 nfet_03v3 ad=0.26p pd=1.52u as=0 ps=0 w=1u l=0.56u
X170 a_6953_n1078# Delay_Cell_mag_0.OUTB.t4 Delay_Cell_mag_0.OUTB.t5 VDD.t0 pfet_03v3 ad=0.26p pd=1.52u as=0.26p ps=1.52u w=1u l=0.56u
X171 GF_INV16_2.IN GF_INV1_0.OUT VSS.t101 VSS.t100 nfet_03v3 ad=0.182p pd=1.22u as=0.308p ps=2.28u w=0.7u l=0.35u
X172 VDD a_8644_959.t0 a_8644_959.t1 VDD.t14 pfet_03v3 ad=0.44p pd=2.88u as=0.26p ps=1.52u w=1u l=0.56u
X173 VSS VCONT.t15 a_8644_n2780.t9 VSS.t115 nfet_03v3 ad=0.26p pd=1.52u as=0.26p ps=1.52u w=1u l=0.56u
X174 a_705_n3320# EN.t14 VSS.t35 VSS.t34 nfet_03v3 ad=0.26p pd=1.52u as=0.44p ps=2.88u w=1u l=0.56u
X175 a_7148_419# Delay_Cell_mag_0.OUT Delay_Cell_mag_1.IN VSS.t2 nfet_03v3 ad=0.26p pd=1.52u as=0.26p ps=1.52u w=1u l=0.56u
X176 Delay_Cell_mag_2.IN Delay_Cell_mag_1.INB.t26 a_705_418# VSS.t17 nfet_03v3 ad=0.26p pd=1.52u as=0.26p ps=1.52u w=1u l=0.56u
X177 Delay_Cell_mag_0.OUTB Delay_Cell_mag_0.INB a_7148_n3320# VSS.t115 nfet_03v3 ad=0.26p pd=1.52u as=0.26p ps=1.52u w=1u l=0.56u
X178 a_705_n3320# Delay_Cell_mag_2.IN.t25 Delay_Cell_mag_2.OUT.t12 VSS.t34 nfet_03v3 ad=0.26p pd=1.52u as=0.26p ps=1.52u w=1u l=0.56u
X179 Delay_Cell_mag_1.INB Delay_Cell_mag_0.OUTB.t25 a_7148_419# VSS.t99 nfet_03v3 ad=0.26p pd=1.52u as=0.26p ps=1.52u w=1u l=0.56u
X180 VDD a_2201_958.t4 a_2201_958.t5 VDD.t40 pfet_03v3 ad=0.44p pd=2.88u as=0.26p ps=1.52u w=1u l=0.56u
X181 VDD Delay_Cell_mag_1.INB.t27 Delay_Cell_mag_1.IN VDD.t37 pfet_03v3 ad=0.26p pd=1.52u as=0.26p ps=1.52u w=1u l=0.56u
X182 VDD a_8644_n2780.t17 a_6953_n1078# VDD.t93 pfet_03v3 ad=0.26p pd=1.52u as=0.26p ps=1.52u w=1u l=0.56u
X183 a_705_418# Delay_Cell_mag_1.IN Delay_Cell_mag_2.INB VSS.t27 nfet_03v3 ad=0.26p pd=1.52u as=0.26p ps=1.52u w=1u l=0.56u
X184 Delay_Cell_mag_2.INB Delay_Cell_mag_2.INB a_510_2660# VDD.t69 pfet_03v3 ad=0.26p pd=1.52u as=0.44p ps=2.88u w=1u l=0.56u
X185 VSS EN.t15 a_7148_419# VSS.t3 nfet_03v3 ad=0.26p pd=1.52u as=0.26p ps=1.52u w=1u l=0.56u
X186 a_510_n1078# Delay_Cell_mag_2.OUTB.t8 Delay_Cell_mag_2.OUTB.t9 VDD.t45 pfet_03v3 ad=0.26p pd=1.52u as=0.26p ps=1.52u w=1u l=0.56u
X187 VDD Delay_Cell_mag_1.IN Delay_Cell_mag_1.INB.t0 VDD.t24 pfet_03v3 ad=0.26p pd=1.52u as=0.26p ps=1.52u w=1u l=0.56u
X188 a_6953_n1078# Delay_Cell_mag_0.OUT Delay_Cell_mag_0.OUT VDD.t3 pfet_03v3 ad=0.26p pd=1.52u as=0.26p ps=1.52u w=1u l=0.56u
X189 VDD a_2201_n2780.t4 a_2201_n2780.t5 VDD.t171 pfet_03v3 ad=0.44p pd=2.88u as=0.26p ps=1.52u w=1u l=0.56u
X190 Delay_Cell_mag_2.OUT Delay_Cell_mag_2.OUTB.t29 VDD.t66 VDD.t65 pfet_03v3 ad=0.26p pd=1.52u as=0.26p ps=1.52u w=1u l=0.56u
X191 Delay_Cell_mag_0.INB Delay_Cell_mag_2.OUT.t28 VDD.t62 VDD.t61 pfet_03v3 ad=0.13p pd=1.02u as=0.13p ps=1.02u w=0.5u l=0.35u
X192 Delay_Cell_mag_0.INB Delay_Cell_mag_2.OUT.t29 VDD.t64 VDD.t63 pfet_03v3 ad=0.13p pd=1.02u as=0.22p ps=1.88u w=0.5u l=0.35u
X193 VDD Delay_Cell_mag_0.OUT Delay_Cell_mag_0.OUTB.t0 VDD.t0 pfet_03v3 ad=0.26p pd=1.52u as=0.26p ps=1.52u w=1u l=0.56u
X194 a_6953_2661# a_8644_959.t17 VDD.t197 VDD.t14 pfet_03v3 ad=0.44p pd=2.88u as=0.26p ps=1.52u w=1u l=0.56u
X195 OUT GF_INV16_2.IN VDD.t188 VDD.t187 pfet_03v3 ad=0.728p pd=3.32u as=0.728p ps=3.32u w=2.8u l=0.35u
R0 a_2201_n2780.t4 a_2201_n2780.n4 22.8782
R1 a_2201_n2780.n5 a_2201_n2780.t4 22.4219
R2 a_2201_n2780.n2 a_2201_n2780.t12 22.2916
R3 a_2201_n2780.n4 a_2201_n2780.n3 14.0791
R4 a_2201_n2780.n3 a_2201_n2780.n2 14.0791
R5 a_2201_n2780.n6 a_2201_n2780.n5 14.0791
R6 a_2201_n2780.n1 a_2201_n2780.t2 11.3416
R7 a_2201_n2780.n5 a_2201_n2780.t8 8.34336
R8 a_2201_n2780.n6 a_2201_n2780.t6 8.34336
R9 a_2201_n2780.n4 a_2201_n2780.t17 8.213
R10 a_2201_n2780.n3 a_2201_n2780.t14 8.213
R11 a_2201_n2780.n2 a_2201_n2780.t16 8.213
R12 a_2201_n2780.n0 a_2201_n2780.n6 8.17193
R13 a_2201_n2780.n0 a_2201_n2780.n1 4.0005
R14 a_2201_n2780.n0 a_2201_n2780.n8 3.63045
R15 a_2201_n2780.n17 a_2201_n2780.n0 2.89398
R16 a_2201_n2780.n13 a_2201_n2780.n10 2.26392
R17 a_2201_n2780.n8 a_2201_n2780.t5 1.8205
R18 a_2201_n2780.n8 a_2201_n2780.n7 1.8205
R19 a_2201_n2780.t7 a_2201_n2780.n17 1.8205
R20 a_2201_n2780.n17 a_2201_n2780.n16 1.8205
R21 a_2201_n2780.n10 a_2201_n2780.t1 1.6385
R22 a_2201_n2780.n10 a_2201_n2780.n9 1.6385
R23 a_2201_n2780.n12 a_2201_n2780.t10 1.6385
R24 a_2201_n2780.n12 a_2201_n2780.n11 1.6385
R25 a_2201_n2780.n1 a_2201_n2780.n15 1.62996
R26 a_2201_n2780.n13 a_2201_n2780.n12 1.4936
R27 a_2201_n2780.n0 a_2201_n2780.n14 1.37554
R28 a_2201_n2780.n14 a_2201_n2780.n13 1.18673
R29 VDD.n260 VDD.t127 335.682
R30 VDD.n208 VDD.t38 335.682
R31 VDD.n52 VDD.t116 179.427
R32 VDD.n481 VDD.t53 179.427
R33 VDD.n63 VDD.t113 112.441
R34 VDD.n487 VDD.t48 112.441
R35 VDD.n65 VDD.t109 52.6321
R36 VDD.n485 VDD.t61 52.6321
R37 VDD.n190 VDD.t187 46.3367
R38 VDD.n243 VDD.t155 46.3367
R39 VDD.n324 VDD.t14 42.1692
R40 VDD.n434 VDD.t98 42.1692
R41 VDD.n502 VDD.t171 42.1692
R42 VDD.n686 VDD.t40 42.1692
R43 VDD.n265 VDD.t135 39.8225
R44 VDD.n213 VDD.t107 39.8225
R45 VDD.n321 VDD.t19 35.5427
R46 VDD.n437 VDD.t93 35.5427
R47 VDD.n505 VDD.t179 35.5427
R48 VDD.n683 VDD.t86 35.5427
R49 VDD.n193 VDD.t191 32.3281
R50 VDD.n246 VDD.t159 32.3281
R51 VDD.n291 VDD.t29 30.7234
R52 VDD.n467 VDD.t13 30.7234
R53 VDD.n535 VDD.t125 30.7234
R54 VDD.n653 VDD.t69 30.7234
R55 VDD.n318 VDD.t21 28.9162
R56 VDD.n440 VDD.t90 28.9162
R57 VDD.n508 VDD.t175 28.9162
R58 VDD.n680 VDD.t83 28.9162
R59 VDD.n294 VDD.t32 24.0969
R60 VDD.n464 VDD.t3 24.0969
R61 VDD.n532 VDD.t119 24.0969
R62 VDD.n656 VDD.t78 24.0969
R63 VDD.n56 VDD.t111 23.9239
R64 VDD.n493 VDD.t63 23.9239
R65 VDD.n315 VDD.t17 22.2897
R66 VDD.n443 VDD.t88 22.2897
R67 VDD.n511 VDD.t183 22.2897
R68 VDD.n677 VDD.t43 22.2897
R69 VDD.n297 VDD.t35 17.4704
R70 VDD.n461 VDD.t7 17.4704
R71 VDD.n529 VDD.t65 17.4704
R72 VDD.n659 VDD.t79 17.4704
R73 VDD.n177 VDD.t189 16.8707
R74 VDD.n230 VDD.t157 16.8707
R75 VDD.n183 VDD.t194 16.1643
R76 VDD.n236 VDD.t162 16.1643
R77 VDD.n312 VDD.t31 15.6632
R78 VDD.n446 VDD.t0 15.6632
R79 VDD.n514 VDD.t56 15.6632
R80 VDD.n674 VDD.t73 15.6632
R81 VDD.n300 VDD.t24 10.8439
R82 VDD.n458 VDD.t10 10.8439
R83 VDD.n526 VDD.t122 10.8439
R84 VDD.n662 VDD.t80 10.8439
R85 VDD.n265 VDD.n264 9.93878
R86 VDD.n213 VDD.n212 9.93878
R87 VDD.n271 VDD.t137 9.6712
R88 VDD.n219 VDD.t104 9.6712
R89 VDD.n309 VDD.t28 9.03664
R90 VDD.n449 VDD.t8 9.03664
R91 VDD.n517 VDD.t59 9.03664
R92 VDD.n671 VDD.t76 9.03664
R93 VDD.n66 VDD.n64 8.70445
R94 VDD.n488 VDD.n486 8.70445
R95 VDD.n258 VDD.t128 8.26313
R96 VDD.n206 VDD.t39 8.26313
R97 VDD.n184 VDD.n182 8.15819
R98 VDD.n237 VDD.n235 8.15819
R99 VDD.n649 VDD.n590 7.10822
R100 VDD.n483 VDD.n480 6.66125
R101 VDD.n58 VDD.t112 6.58259
R102 VDD.n69 VDD.n51 6.49073
R103 VDD.n496 VDD.t64 6.48786
R104 VDD.n198 VDD.n197 6.3005
R105 VDD.n197 VDD.n196 6.3005
R106 VDD.n477 VDD.n69 6.07717
R107 VDD.n202 VDD.n201 5.38954
R108 VDD.n332 VDD.n331 4.85019
R109 VDD.n285 VDD.n284 4.5005
R110 VDD.n330 VDD.n151 4.5005
R111 VDD.n74 VDD.n73 4.5005
R112 VDD.n498 VDD.n497 4.46272
R113 VDD.n264 VDD.t136 4.3192
R114 VDD.n275 VDD.n263 4.3192
R115 VDD.n212 VDD.t108 4.3192
R116 VDD.n223 VDD.n211 4.3192
R117 VDD.n262 VDD.n261 4.29708
R118 VDD.n210 VDD.n209 4.29333
R119 VDD.n303 VDD.t27 4.21737
R120 VDD.n455 VDD.t11 4.21737
R121 VDD.n523 VDD.t51 4.21737
R122 VDD.n665 VDD.t81 4.21737
R123 VDD.n252 VDD.n251 3.94094
R124 VDD.n176 VDD.t190 3.92746
R125 VDD.n203 VDD.n173 3.92746
R126 VDD.n229 VDD.t158 3.92746
R127 VDD.n96 VDD.n95 3.9192
R128 VDD.n406 VDD.n405 3.9192
R129 VDD.n25 VDD.n24 3.9192
R130 VDD.n724 VDD.n723 3.9192
R131 VDD.n77 VDD.t30 3.80738
R132 VDD.n387 VDD.t131 3.80738
R133 VDD.n6 VDD.t126 3.80738
R134 VDD.n705 VDD.t165 3.80738
R135 VDD.n55 VDD.t110 3.6405
R136 VDD.n55 VDD.n54 3.6405
R137 VDD.n479 VDD.t62 3.6405
R138 VDD.n479 VDD.n478 3.6405
R139 VDD.n186 VDD.n175 3.27746
R140 VDD.n239 VDD.n228 3.27746
R141 VDD.n259 VDD.n258 3.19668
R142 VDD.n207 VDD.n206 3.19668
R143 VDD.n68 VDD.n53 3.1505
R144 VDD.n53 VDD.n52 3.1505
R145 VDD.n58 VDD.n57 3.1505
R146 VDD.n57 VDD.n56 3.1505
R147 VDD.n67 VDD.n66 3.1505
R148 VDD.n66 VDD.n65 3.1505
R149 VDD.n64 VDD.n62 3.1505
R150 VDD.n64 VDD.n63 3.1505
R151 VDD.n61 VDD.n60 3.1505
R152 VDD.n60 VDD.n59 3.1505
R153 VDD.n486 VDD.n484 3.1505
R154 VDD.n486 VDD.n485 3.1505
R155 VDD.n495 VDD.n494 3.1505
R156 VDD.n494 VDD.n493 3.1505
R157 VDD.n492 VDD.n491 3.1505
R158 VDD.n491 VDD.n490 3.1505
R159 VDD.n489 VDD.n488 3.1505
R160 VDD.n488 VDD.n487 3.1505
R161 VDD.n483 VDD.n482 3.1505
R162 VDD.n482 VDD.n481 3.1505
R163 VDD.n257 VDD.n256 3.1505
R164 VDD.n260 VDD.n259 3.1505
R165 VDD.n270 VDD.n269 3.1505
R166 VDD.n269 VDD.n268 3.1505
R167 VDD.n267 VDD.n266 3.1505
R168 VDD.n273 VDD.n272 3.1505
R169 VDD.n195 VDD.n194 3.1505
R170 VDD.n194 VDD.n193 3.1505
R171 VDD.n192 VDD.n191 3.1505
R172 VDD.n191 VDD.n190 3.1505
R173 VDD.n189 VDD.n188 3.1505
R174 VDD.n188 VDD.n187 3.1505
R175 VDD.n185 VDD.n184 3.1505
R176 VDD.n184 VDD.n183 3.1505
R177 VDD.n182 VDD.n180 3.1505
R178 VDD.n182 VDD.n181 3.1505
R179 VDD.n179 VDD.n178 3.1505
R180 VDD.n248 VDD.n247 3.1505
R181 VDD.n247 VDD.n246 3.1505
R182 VDD.n245 VDD.n244 3.1505
R183 VDD.n244 VDD.n243 3.1505
R184 VDD.n242 VDD.n241 3.1505
R185 VDD.n241 VDD.n240 3.1505
R186 VDD.n238 VDD.n237 3.1505
R187 VDD.n237 VDD.n236 3.1505
R188 VDD.n235 VDD.n233 3.1505
R189 VDD.n235 VDD.n234 3.1505
R190 VDD.n232 VDD.n231 3.1505
R191 VDD.n218 VDD.n217 3.1505
R192 VDD.n217 VDD.n216 3.1505
R193 VDD.n215 VDD.n214 3.1505
R194 VDD.n221 VDD.n220 3.1505
R195 VDD.n208 VDD.n207 3.1505
R196 VDD.n205 VDD.n204 3.1505
R197 VDD.n327 VDD.n153 3.1505
R198 VDD.n153 VDD.n152 3.1505
R199 VDD.n326 VDD.n325 3.1505
R200 VDD.n325 VDD.n324 3.1505
R201 VDD.n323 VDD.n322 3.1505
R202 VDD.n322 VDD.n321 3.1505
R203 VDD.n320 VDD.n319 3.1505
R204 VDD.n319 VDD.n318 3.1505
R205 VDD.n317 VDD.n316 3.1505
R206 VDD.n316 VDD.n315 3.1505
R207 VDD.n314 VDD.n313 3.1505
R208 VDD.n313 VDD.n312 3.1505
R209 VDD.n311 VDD.n310 3.1505
R210 VDD.n310 VDD.n309 3.1505
R211 VDD.n308 VDD.n307 3.1505
R212 VDD.n307 VDD.n306 3.1505
R213 VDD.n305 VDD.n304 3.1505
R214 VDD.n304 VDD.n303 3.1505
R215 VDD.n302 VDD.n301 3.1505
R216 VDD.n301 VDD.n300 3.1505
R217 VDD.n299 VDD.n298 3.1505
R218 VDD.n298 VDD.n297 3.1505
R219 VDD.n296 VDD.n295 3.1505