* NGSPICE file created from Current_Mirror_Top_flat.ext - technology: gf180mcuC

.subckt pex_Current_Mirror_Top VDD ITAIL ITAIL_SRC ITAIL_SINK  VSS
X0 VDD G_source_up.t6 G_source_up.t7 VDD.t50 pfet_03v3 ad=0.156p pd=1.12u as=0.156p ps=1.12u w=0.6u l=0.5u
X1 VDD G1_2.t60 SD1_1.t11 VDD.t67 pfet_03v3 ad=0.176p pd=1.68u as=0.104p ps=0.92u w=0.4u l=0.5u
X2 VSS G2_1.t37 G2_1.t38 VSS.t44 nfet_03v3 ad=0.44p pd=2.88u as=0.26p ps=1.52u w=1u l=0.5u
X3 ITAIL ITAIL.t38 G2_1.t7 VSS.t40 nfet_03v3 ad=0.26p pd=1.52u as=0.26p ps=1.52u w=1u l=0.5u
X4 ITAIL_SRC G_source_dn.t24 A1.t14 VDD.t20 pfet_03v3 ad=0.156p pd=1.12u as=0.156p ps=1.12u w=0.6u l=0.5u
X5 G_source_dn G_source_dn.t22 G_source_up.t21 VDD.t80 pfet_03v3 ad=0.156p pd=1.12u as=0.156p ps=1.12u w=0.6u l=0.5u
X6 G_sink_up G1_1.t60 SD1_1.t12 VDD.t3 pfet_03v3 ad=0.104p pd=0.92u as=0.104p ps=0.92u w=0.4u l=0.5u
X7 VDD G1_2.t45 G1_2.t46 VDD.t98 pfet_03v3 ad=0.26p pd=1.52u as=0.26p ps=1.52u w=1u l=0.5u
X8 VSS G_sink_dn.t24 SD0_1.t15 VSS.t32 nfet_03v3 ad=0.264p pd=2.08u as=0.156p ps=1.12u w=0.6u l=0.5u
X9 VDD G1_2.t43 G1_2.t44 VDD.t95 pfet_03v3 ad=0.26p pd=1.52u as=0.26p ps=1.52u w=1u l=0.5u
X10 SD0_1 G_sink_dn.t25 VSS.t134 VSS.t15 nfet_03v3 ad=0.156p pd=1.12u as=0.156p ps=1.12u w=0.6u l=0.5u
X11 SD2_1 G2_1.t60 VSS.t129 VSS.t60 nfet_03v3 ad=0.26p pd=1.52u as=0.26p ps=1.52u w=1u l=0.5u
X12 VSS G2_1.t35 G2_1.t36 VSS.t54 nfet_03v3 ad=0.26p pd=1.52u as=0.26p ps=1.52u w=1u l=0.5u
X13 G2_1 ITAIL.t36 ITAIL.t37 VSS.t43 nfet_03v3 ad=0.26p pd=1.52u as=0.44p ps=2.88u w=1u l=0.5u
X14 VDD G1_2.t41 G1_2.t42 VDD.t67 pfet_03v3 ad=0.44p pd=2.88u as=0.26p ps=1.52u w=1u l=0.5u
X15 G2_1 ITAIL.t34 ITAIL.t35 VSS.t46 nfet_03v3 ad=0.26p pd=1.52u as=0.26p ps=1.52u w=1u l=0.5u
X16 G1_2 G1_2.t39 VDD.t109 VDD.t55 pfet_03v3 ad=0.26p pd=1.52u as=0.26p ps=1.52u w=1u l=0.5u
X17 ITAIL ITAIL.t32 G2_1.t12 VSS.t64 nfet_03v3 ad=0.26p pd=1.52u as=0.26p ps=1.52u w=1u l=0.5u
X18 SD2_1 G2_1.t61 VSS.t126 VSS.t18 nfet_03v3 ad=0.26p pd=1.52u as=0.26p ps=1.52u w=1u l=0.5u
X19 SD0_1 G_sink_dn.t26 VSS.t68 VSS.t11 nfet_03v3 ad=0.156p pd=1.12u as=0.156p ps=1.12u w=0.6u l=0.5u
X20 G_sink_dn G_sink_dn.t22 VSS.t49 VSS.t48 nfet_03v3 ad=0.156p pd=1.12u as=0.156p ps=1.12u w=0.6u l=0.5u
X21 G1_1 G1_1.t38 G1_2.t53 VDD.t3 pfet_03v3 ad=0.26p pd=1.52u as=0.26p ps=1.52u w=1u l=0.5u
X22 G1_2 G1_2.t37 VDD.t14 VDD.t13 pfet_03v3 ad=0.26p pd=1.52u as=0.26p ps=1.52u w=1u l=0.5u
X23 A2 G_sink_up.t26 ITAIL_SINK.t5 VSS.t3 nfet_03v3 ad=0.156p pd=1.12u as=0.156p ps=1.12u w=0.6u l=0.5u
X24 VDD G1_2.t35 G1_2.t36 VDD.t10 pfet_03v3 ad=0.26p pd=1.52u as=0.26p ps=1.52u w=1u l=0.5u
X25 ITAIL ITAIL.t30 G2_1.t8 VSS.t45 nfet_03v3 ad=0.26p pd=1.52u as=0.26p ps=1.52u w=1u l=0.5u
X26 G1_2 G1_1.t36 G1_1.t37 VDD.t88 pfet_03v3 ad=0.26p pd=1.52u as=0.26p ps=1.52u w=1u l=0.5u
X27 ITAIL_SINK G_sink_up.t27 A2.t6 VSS.t8 nfet_03v3 ad=0.156p pd=1.12u as=0.156p ps=1.12u w=0.6u l=0.5u
X28 G_sink_dn G_sink_up.t20 G_sink_up.t21 VSS.t58 nfet_03v3 ad=0.156p pd=1.12u as=0.156p ps=1.12u w=0.6u l=0.5u
X29 VSS G2_1.t62 SD2_1.t37 VSS.t16 nfet_03v3 ad=0.26p pd=1.52u as=0.26p ps=1.52u w=1u l=0.5u
X30 ITAIL_SINK G_sink_up.t28 A2.t5 VSS.t37 nfet_03v3 ad=0.156p pd=1.12u as=0.156p ps=1.12u w=0.6u l=0.5u
X31 G_sink_up G1_1.t62 SD1_1.t13 VDD.t7 pfet_03v3 ad=0.104p pd=0.92u as=0.104p ps=0.92u w=0.4u l=0.5u
X32 VSS G2_1.t63 SD2_1.t36 VSS.t40 nfet_03v3 ad=0.26p pd=1.52u as=0.26p ps=1.52u w=1u l=0.5u
X33 ITAIL_SRC G_source_dn.t26 A1.t13 VDD.t45 pfet_03v3 ad=0.264p pd=2.08u as=0.156p ps=1.12u w=0.6u l=0.5u
X34 VSS G_sink_dn.t28 SD0_1.t12 VSS.t4 nfet_03v3 ad=0.156p pd=1.12u as=0.156p ps=1.12u w=0.6u l=0.5u
X35 VSS G2_1.t33 G2_1.t34 VSS.t41 nfet_03v3 ad=0.26p pd=1.52u as=0.26p ps=1.52u w=1u l=0.5u
X36 SD2_1 G2_1.t64 VSS.t119 VSS.t61 nfet_03v3 ad=0.26p pd=1.52u as=0.26p ps=1.52u w=1u l=0.5u
X37 A1 G_source_up.t24 VDD.t49 VDD.t48 pfet_03v3 ad=0.156p pd=1.12u as=0.156p ps=1.12u w=0.6u l=0.5u
X38 VSS G2_1.t31 G2_1.t32 VSS.t62 nfet_03v3 ad=0.26p pd=1.52u as=0.26p ps=1.52u w=1u l=0.5u
X39 G_source_dn G_source_dn.t20 G_source_up.t20 VDD.t79 pfet_03v3 ad=0.156p pd=1.12u as=0.156p ps=1.12u w=0.6u l=0.5u
X40 G_sink_up G1_1.t63 SD1_1.t18 VDD.t6 pfet_03v3 ad=0.104p pd=0.92u as=0.104p ps=0.92u w=0.4u l=0.5u
X41 VSS G2_1.t65 SD2_1.t34 VSS.t44 nfet_03v3 ad=0.44p pd=2.88u as=0.26p ps=1.52u w=1u l=0.5u
X42 G_sink_up G_sink_up.t10 G_sink_dn.t6 VSS.t2 nfet_03v3 ad=0.264p pd=2.08u as=0.156p ps=1.12u w=0.6u l=0.5u
X43 G2_1 ITAIL.t28 ITAIL.t29 VSS.t61 nfet_03v3 ad=0.26p pd=1.52u as=0.26p ps=1.52u w=1u l=0.5u
X44 G1_1 G1_1.t34 G1_2.t50 VDD.t83 pfet_03v3 ad=0.26p pd=1.52u as=0.26p ps=1.52u w=1u l=0.5u
X45 VSS G_sink_dn.t20 G_sink_dn.t21 VSS.t34 nfet_03v3 ad=0.156p pd=1.12u as=0.156p ps=1.12u w=0.6u l=0.5u
X46 VSS G_sink_dn.t29 SD0_1.t11 VSS.t47 nfet_03v3 ad=0.156p pd=1.12u as=0.156p ps=1.12u w=0.6u l=0.5u
X47 SD1_1 G1_2.t63 VDD.t71 VDD.t70 pfet_03v3 ad=0.104p pd=0.92u as=0.176p ps=1.68u w=0.4u l=0.5u
X48 G1_1 ITAIL.t43 SD2_1.t19 VSS.t24 nfet_03v3 ad=0.26p pd=1.52u as=0.26p ps=1.52u w=1u l=0.5u
X49 SD2_1 G2_1.t66 VSS.t114 VSS.t0 nfet_03v3 ad=0.26p pd=1.52u as=0.26p ps=1.52u w=1u l=0.5u
X50 G1_1 G1_1.t32 G1_2.t1 VDD.t7 pfet_03v3 ad=0.26p pd=1.52u as=0.26p ps=1.52u w=1u l=0.5u
X51 VSS G2_1.t67 SD2_1.t32 VSS.t41 nfet_03v3 ad=0.26p pd=1.52u as=0.26p ps=1.52u w=1u l=0.5u
X52 VDD G_source_up.t25 A1.t6 VDD.t45 pfet_03v3 ad=0.264p pd=2.08u as=0.156p ps=1.12u w=0.6u l=0.5u
X53 SD2_1 ITAIL G1_1.t59 VSS.t46 nfet_03v3 ad=0.26p pd=1.52u as=0.26p ps=1.52u w=1u l=0.5u
X54 G2_1 ITAIL.t26 ITAIL.t27 VSS.t22 nfet_03v3 ad=0.26p pd=1.52u as=0.26p ps=1.52u w=1u l=0.5u
X55 G2_1 G2_1.t17 VSS.t111 VSS.t65 nfet_03v3 ad=0.26p pd=1.52u as=0.26p ps=1.52u w=1u l=0.5u
X56 A1 G_source_dn.t28 ITAIL_SRC.t5 VDD.t48 pfet_03v3 ad=0.156p pd=1.12u as=0.156p ps=1.12u w=0.6u l=0.5u
X57 G_source_up G_source_up.t14 VDD.t41 VDD.t40 pfet_03v3 ad=0.156p pd=1.12u as=0.264p ps=2.08u w=0.6u l=0.5u
X58 G_source_up G_source_up.t8 VDD.t44 VDD.t43 pfet_03v3 ad=0.156p pd=1.12u as=0.156p ps=1.12u w=0.6u l=0.5u
X59 SD1_1 G1_2.t64 VDD.t59 VDD.t58 pfet_03v3 ad=0.104p pd=0.92u as=0.104p ps=0.92u w=0.4u l=0.5u
X60 G_sink_dn G_sink_up.t18 G_sink_up.t19 VSS.t1 nfet_03v3 ad=0.156p pd=1.12u as=0.264p ps=2.08u w=0.6u l=0.5u
X61 G1_1 G1_1.t30 G1_2.t0 VDD.t6 pfet_03v3 ad=0.26p pd=1.52u as=0.26p ps=1.52u w=1u l=0.5u
X62 VSS G2_1.t29 G2_1.t30 VSS.t23 nfet_03v3 ad=0.26p pd=1.52u as=0.26p ps=1.52u w=1u l=0.5u
X63 SD0_1 G_sink_up.t30 G_source_dn.t4 VSS.t55 nfet_03v3 ad=0.156p pd=1.12u as=0.156p ps=1.12u w=0.6u l=0.5u
X64 G1_2 G1_2.t33 VDD.t103 VDD.t70 pfet_03v3 ad=0.26p pd=1.52u as=0.44p ps=2.88u w=1u l=0.5u
X65 G2_1 G2_1.t41 VSS.t108 VSS.t0 nfet_03v3 ad=0.26p pd=1.52u as=0.26p ps=1.52u w=1u l=0.5u
X66 G1_1 ITAIL SD2_1.t17 VSS.t45 nfet_03v3 ad=0.26p pd=1.52u as=0.26p ps=1.52u w=1u l=0.5u
X67 G1_2 G1_1.t28 G1_1.t29 VDD.t86 pfet_03v3 ad=0.26p pd=1.52u as=0.26p ps=1.52u w=1u l=0.5u
X68 VSS G2_1.t27 G2_1.t28 VSS.t24 nfet_03v3 ad=0.26p pd=1.52u as=0.26p ps=1.52u w=1u l=0.5u
X69 G_source_up G_source_dn.t18 G_source_dn.t19 VDD.t64 pfet_03v3 ad=0.156p pd=1.12u as=0.156p ps=1.12u w=0.6u l=0.5u
X70 G2_1 ITAIL.t24 ITAIL.t25 VSS.t17 nfet_03v3 ad=0.26p pd=1.52u as=0.26p ps=1.52u w=1u l=0.5u
X71 G_sink_dn G_sink_up.t16 G_sink_up.t17 VSS.t50 nfet_03v3 ad=0.156p pd=1.12u as=0.156p ps=1.12u w=0.6u l=0.5u
X72 VSS G_sink_dn.t30 SD0_1.t10 VSS.t29 nfet_03v3 ad=0.156p pd=1.12u as=0.156p ps=1.12u w=0.6u l=0.5u
X73 G1_2 G1_2.t31 VDD.t102 VDD.t58 pfet_03v3 ad=0.26p pd=1.52u as=0.26p ps=1.52u w=1u l=0.5u
X74 A2 G_sink_dn.t31 VSS.t66 VSS.t3 nfet_03v3 ad=0.156p pd=1.12u as=0.156p ps=1.12u w=0.6u l=0.5u
X75 G1_1 ITAIL.t44 SD2_1.t16 VSS.t64 nfet_03v3 ad=0.26p pd=1.52u as=0.26p ps=1.52u w=1u l=0.5u
X76 A2 G_sink_dn.t32 VSS.t53 VSS.t52 nfet_03v3 ad=0.156p pd=1.12u as=0.156p ps=1.12u w=0.6u l=0.5u
X77 ITAIL ITAIL.t22 G2_1.t1 VSS.t16 nfet_03v3 ad=0.26p pd=1.52u as=0.26p ps=1.52u w=1u l=0.5u
X78 G1_1 G1_1.t26 G1_2.t57 VDD.t98 pfet_03v3 ad=0.26p pd=1.52u as=0.26p ps=1.52u w=1u l=0.5u
X79 VSS G_sink_dn.t33 A2.t13 VSS.t19 nfet_03v3 ad=0.264p pd=2.08u as=0.156p ps=1.12u w=0.6u l=0.5u
X80 G_sink_up G1_1.t68 SD1_1.t19 VDD.t78 pfet_03v3 ad=0.104p pd=0.92u as=0.104p ps=0.92u w=0.4u l=0.5u
X81 VSS G_sink_dn.t34 A2.t12 VSS.t37 nfet_03v3 ad=0.156p pd=1.12u as=0.156p ps=1.12u w=0.6u l=0.5u
X82 G1_1 G1_1.t24 G1_2.t56 VDD.t95 pfet_03v3 ad=0.26p pd=1.52u as=0.26p ps=1.52u w=1u l=0.5u
X83 G_sink_up G_sink_up.t22 G_sink_dn.t3 VSS.t12 nfet_03v3 ad=0.156p pd=1.12u as=0.156p ps=1.12u w=0.6u l=0.5u
X84 G2_1 G2_1.t47 VSS.t105 VSS.t18 nfet_03v3 ad=0.26p pd=1.52u as=0.26p ps=1.52u w=1u l=0.5u
X85 VDD G_source_up.t28 A1.t5 VDD.t8 pfet_03v3 ad=0.156p pd=1.12u as=0.156p ps=1.12u w=0.6u l=0.5u
X86 G_source_dn G_sink_up.t32 SD0_1.t6 VSS.t32 nfet_03v3 ad=0.264p pd=2.08u as=0.156p ps=1.12u w=0.6u l=0.5u
X87 A2 G_sink_up.t33 ITAIL_SINK.t4 VSS.t33 nfet_03v3 ad=0.156p pd=1.12u as=0.156p ps=1.12u w=0.6u l=0.5u
X88 VDD G1_2.t67 SD1_1.t8 VDD.t0 pfet_03v3 ad=0.104p pd=0.92u as=0.104p ps=0.92u w=0.4u l=0.5u
X89 G1_1 ITAIL.t46 SD2_1.t15 VSS.t62 nfet_03v3 ad=0.26p pd=1.52u as=0.26p ps=1.52u w=1u l=0.5u
X90 SD2_1 G2_1.t71 VSS.t104 VSS.t43 nfet_03v3 ad=0.26p pd=1.52u as=0.44p ps=2.88u w=1u l=0.5u
X91 SD0_1 G_sink_up.t34 G_source_dn.t1 VSS.t15 nfet_03v3 ad=0.156p pd=1.12u as=0.156p ps=1.12u w=0.6u l=0.5u
X92 SD2_1 ITAIL G1_1.t58 VSS.t18 nfet_03v3 ad=0.26p pd=1.52u as=0.26p ps=1.52u w=1u l=0.5u
X93 G1_1 G1_1.t22 G1_2.t48 VDD.t67 pfet_03v3 ad=0.44p pd=2.88u as=0.26p ps=1.52u w=1u l=0.5u
X94 A1 G_source_dn.t29 ITAIL_SRC.t4 VDD.t34 pfet_03v3 ad=0.156p pd=1.12u as=0.264p ps=2.08u w=0.6u l=0.5u
X95 SD1_1 G1_2.t68 VDD.t63 VDD.t62 pfet_03v3 ad=0.104p pd=0.92u as=0.104p ps=0.92u w=0.4u l=0.5u
X96 VDD G_source_up.t4 G_source_up.t5 VDD.t36 pfet_03v3 ad=0.156p pd=1.12u as=0.156p ps=1.12u w=0.6u l=0.5u
X97 G2_1 G2_1.t49 VSS.t103 VSS.t60 nfet_03v3 ad=0.26p pd=1.52u as=0.26p ps=1.52u w=1u l=0.5u
X98 VSS G2_1.t25 G2_1.t26 VSS.t40 nfet_03v3 ad=0.26p pd=1.52u as=0.26p ps=1.52u w=1u l=0.5u
X99 VDD G1_2.t29 G1_2.t30 VDD.t3 pfet_03v3 ad=0.26p pd=1.52u as=0.26p ps=1.52u w=1u l=0.5u
X100 SD1_1 G1_1.t71 G_sink_up.t5 VDD.t81 pfet_03v3 ad=0.104p pd=0.92u as=0.104p ps=0.92u w=0.4u l=0.5u
X101 G1_1 G1_1.t20 G1_2.t47 VDD.t78 pfet_03v3 ad=0.26p pd=1.52u as=0.26p ps=1.52u w=1u l=0.5u
X102 G_sink_dn G_sink_up.t14 G_sink_up.t15 VSS.t48 nfet_03v3 ad=0.156p pd=1.12u as=0.156p ps=1.12u w=0.6u l=0.5u
X103 SD2_1 G2_1.t73 VSS.t100 VSS.t22 nfet_03v3 ad=0.26p pd=1.52u as=0.26p ps=1.52u w=1u l=0.5u
X104 ITAIL_SRC G_source_dn.t30 A1.t12 VDD.t8 pfet_03v3 ad=0.156p pd=1.12u as=0.156p ps=1.12u w=0.6u l=0.5u
X105 SD1_1 G1_1.t73 G_sink_up.t4 VDD.t53 pfet_03v3 ad=0.104p pd=0.92u as=0.104p ps=0.92u w=0.4u l=0.5u
X106 VDD G1_2.t27 G1_2.t28 VDD.t0 pfet_03v3 ad=0.26p pd=1.52u as=0.26p ps=1.52u w=1u l=0.5u
X107 G1_1 ITAIL SD2_1.t13 VSS.t16 nfet_03v3 ad=0.26p pd=1.52u as=0.26p ps=1.52u w=1u l=0.5u
X108 G2_1 ITAIL.t20 ITAIL.t21 VSS.t42 nfet_03v3 ad=0.26p pd=1.52u as=0.26p ps=1.52u w=1u l=0.5u
X109 SD0_1 G_sink_dn.t35 VSS.t67 VSS.t63 nfet_03v3 ad=0.156p pd=1.12u as=0.264p ps=2.08u w=0.6u l=0.5u
X110 G1_1 ITAIL SD2_1.t12 VSS.t40 nfet_03v3 ad=0.26p pd=1.52u as=0.26p ps=1.52u w=1u l=0.5u
X111 G_source_up G_source_dn.t16 G_source_dn.t17 VDD.t101 pfet_03v3 ad=0.156p pd=1.12u as=0.156p ps=1.12u w=0.6u l=0.5u
X112 A1 G_source_up.t29 VDD.t35 VDD.t34 pfet_03v3 ad=0.156p pd=1.12u as=0.264p ps=2.08u w=0.6u l=0.5u
X113 G2_1 G2_1.t43 VSS.t99 VSS.t43 nfet_03v3 ad=0.26p pd=1.52u as=0.44p ps=2.88u w=1u l=0.5u
X114 G_source_up G_source_dn.t14 G_source_dn.t15 VDD.t104 pfet_03v3 ad=0.156p pd=1.12u as=0.156p ps=1.12u w=0.6u l=0.5u
X115 G_sink_dn G_sink_dn.t18 VSS.t137 VSS.t58 nfet_03v3 ad=0.156p pd=1.12u as=0.156p ps=1.12u w=0.6u l=0.5u
X116 SD1_1 G1_1.t74 G_sink_up.t3 VDD.t54 pfet_03v3 ad=0.104p pd=0.92u as=0.104p ps=0.92u w=0.4u l=0.5u
X117 G1_2 G1_2.t25 VDD.t74 VDD.t62 pfet_03v3 ad=0.26p pd=1.52u as=0.26p ps=1.52u w=1u l=0.5u
X118 ITAIL ITAIL.t18 G2_1.t10 VSS.t54 nfet_03v3 ad=0.26p pd=1.52u as=0.26p ps=1.52u w=1u l=0.5u
X119 G1_2 G1_1.t18 G1_1.t19 VDD.t81 pfet_03v3 ad=0.26p pd=1.52u as=0.26p ps=1.52u w=1u l=0.5u
X120 G2_1 G2_1.t51 VSS.t98 VSS.t46 nfet_03v3 ad=0.26p pd=1.52u as=0.26p ps=1.52u w=1u l=0.5u
X121 G1_1 ITAIL SD2_1.t11 VSS.t44 nfet_03v3 ad=0.44p pd=2.88u as=0.26p ps=1.52u w=1u l=0.5u
X122 G1_2 G1_1.t16 G1_1.t17 VDD.t53 pfet_03v3 ad=0.26p pd=1.52u as=0.26p ps=1.52u w=1u l=0.5u
X123 ITAIL ITAIL.t16 G2_1.t9 VSS.t44 nfet_03v3 ad=0.44p pd=2.88u as=0.26p ps=1.52u w=1u l=0.5u
X124 VSS G2_1.t76 SD2_1.t29 VSS.t24 nfet_03v3 ad=0.26p pd=1.52u as=0.26p ps=1.52u w=1u l=0.5u
X125 G_source_dn G_source_dn.t12 G_source_up.t19 VDD.t77 pfet_03v3 ad=0.156p pd=1.12u as=0.156p ps=1.12u w=0.6u l=0.5u
X126 G_source_dn G_sink_up.t35 SD0_1.t4 VSS.t47 nfet_03v3 ad=0.156p pd=1.12u as=0.156p ps=1.12u w=0.6u l=0.5u
X127 VSS G2_1.t23 G2_1.t24 VSS.t45 nfet_03v3 ad=0.26p pd=1.52u as=0.26p ps=1.52u w=1u l=0.5u
X128 G1_1 ITAIL.t49 SD2_1.t10 VSS.t54 nfet_03v3 ad=0.26p pd=1.52u as=0.26p ps=1.52u w=1u l=0.5u
X129 VDD G1_2.t23 G1_2.t24 VDD.t7 pfet_03v3 ad=0.26p pd=1.52u as=0.26p ps=1.52u w=1u l=0.5u
X130 G1_2 G1_1.t14 G1_1.t15 VDD.t54 pfet_03v3 ad=0.26p pd=1.52u as=0.26p ps=1.52u w=1u l=0.5u
X131 A2 G_sink_up.t36 ITAIL_SINK.t3 VSS.t52 nfet_03v3 ad=0.156p pd=1.12u as=0.156p ps=1.12u w=0.6u l=0.5u
X132 VSS G2_1.t77 SD2_1.t28 VSS.t23 nfet_03v3 ad=0.26p pd=1.52u as=0.26p ps=1.52u w=1u l=0.5u
X133 ITAIL_SINK G_sink_up.t37 A2.t2 VSS.t19 nfet_03v3 ad=0.264p pd=2.08u as=0.156p ps=1.12u w=0.6u l=0.5u
X134 VSS G_sink_dn.t16 G_sink_dn.t17 VSS.t7 nfet_03v3 ad=0.156p pd=1.12u as=0.156p ps=1.12u w=0.6u l=0.5u
X135 ITAIL_SINK G_sink_up.t38 A2.t1 VSS.t69 nfet_03v3 ad=0.156p pd=1.12u as=0.156p ps=1.12u w=0.6u l=0.5u
X136 ITAIL ITAIL.t14 G2_1.t15 VSS.t41 nfet_03v3 ad=0.26p pd=1.52u as=0.26p ps=1.52u w=1u l=0.5u
X137 VDD G1_2.t21 G1_2.t22 VDD.t6 pfet_03v3 ad=0.26p pd=1.52u as=0.26p ps=1.52u w=1u l=0.5u
X138 A2 G_sink_dn.t37 VSS.t57 VSS.t33 nfet_03v3 ad=0.156p pd=1.12u as=0.156p ps=1.12u w=0.6u l=0.5u
X139 ITAIL ITAIL.t12 G2_1.t14 VSS.t62 nfet_03v3 ad=0.26p pd=1.52u as=0.26p ps=1.52u w=1u l=0.5u
X140 SD2_1 G2_1.t78 VSS.t91 VSS.t42 nfet_03v3 ad=0.26p pd=1.52u as=0.26p ps=1.52u w=1u l=0.5u
X141 A2 G_sink_dn.t38 VSS.t26 VSS.t25 nfet_03v3 ad=0.156p pd=1.12u as=0.264p ps=2.08u w=0.6u l=0.5u
X142 G1_2 G1_1.t12 G1_1.t13 VDD.t70 pfet_03v3 ad=0.26p pd=1.52u as=0.44p ps=2.88u w=1u l=0.5u
X143 VSS G2_1.t21 G2_1.t22 VSS.t64 nfet_03v3 ad=0.26p pd=1.52u as=0.26p ps=1.52u w=1u l=0.5u
X144 SD0_1 G_sink_dn.t39 VSS.t56 VSS.t55 nfet_03v3 ad=0.156p pd=1.12u as=0.156p ps=1.12u w=0.6u l=0.5u
X145 SD1_1 G1_1.t75 G_sink_up.t2 VDD.t55 pfet_03v3 ad=0.104p pd=0.92u as=0.104p ps=0.92u w=0.4u l=0.5u
X146 SD2_1 ITAIL.t52 G1_1.t57 VSS.t65 nfet_03v3 ad=0.26p pd=1.52u as=0.26p ps=1.52u w=1u l=0.5u
X147 SD2_1 ITAIL.t53 G1_1.t56 VSS.t17 nfet_03v3 ad=0.26p pd=1.52u as=0.26p ps=1.52u w=1u l=0.5u
X148 G_source_up G_source_dn.t10 G_source_dn.t11 VDD.t57 pfet_03v3 ad=0.156p pd=1.12u as=0.156p ps=1.12u w=0.6u l=0.5u
X149 SD1_1 G1_1.t76 G_sink_up.t1 VDD.t13 pfet_03v3 ad=0.104p pd=0.92u as=0.104p ps=0.92u w=0.4u l=0.5u
X150 G2_1 G2_1.t55 VSS.t88 VSS.t22 nfet_03v3 ad=0.26p pd=1.52u as=0.26p ps=1.52u w=1u l=0.5u
X151 VSS G2_1.t80 SD2_1.t26 VSS.t64 nfet_03v3 ad=0.26p pd=1.52u as=0.26p ps=1.52u w=1u l=0.5u
X152 ITAIL_SRC G_source_dn.t32 A1.t11 VDD.t9 pfet_03v3 ad=0.156p pd=1.12u as=0.156p ps=1.12u w=0.6u l=0.5u
X153 G2_1 ITAIL.t10 ITAIL.t11 VSS.t65 nfet_03v3 ad=0.26p pd=1.52u as=0.26p ps=1.52u w=1u l=0.5u
X154 G1_2 G1_1.t10 G1_1.t11 VDD.t58 pfet_03v3 ad=0.26p pd=1.52u as=0.26p ps=1.52u w=1u l=0.5u
X155 G_sink_dn G_sink_dn.t14 VSS.t51 VSS.t50 nfet_03v3 ad=0.156p pd=1.12u as=0.156p ps=1.12u w=0.6u l=0.5u
X156 G_sink_up G1_1.t77 SD1_1.t17 VDD.t10 pfet_03v3 ad=0.104p pd=0.92u as=0.104p ps=0.92u w=0.4u l=0.5u
X157 SD1_1 G1_2.t70 VDD.t89 VDD.t88 pfet_03v3 ad=0.104p pd=0.92u as=0.104p ps=0.92u w=0.4u l=0.5u
X158 SD2_1 ITAIL.t54 G1_1.t55 VSS.t60 nfet_03v3 ad=0.26p pd=1.52u as=0.26p ps=1.52u w=1u l=0.5u
X159 G_source_up G_source_up.t12 VDD.t33 VDD.t32 pfet_03v3 ad=0.156p pd=1.12u as=0.156p ps=1.12u w=0.6u l=0.5u
X160 SD0_1 G_sink_up.t39 G_source_dn.t0 VSS.t11 nfet_03v3 ad=0.156p pd=1.12u as=0.156p ps=1.12u w=0.6u l=0.5u
X161 G1_2 G1_1.t8 G1_1.t9 VDD.t55 pfet_03v3 ad=0.26p pd=1.52u as=0.26p ps=1.52u w=1u l=0.5u
X162 VSS G2_1.t81 SD2_1.t25 VSS.t62 nfet_03v3 ad=0.26p pd=1.52u as=0.26p ps=1.52u w=1u l=0.5u
X163 G_source_dn G_source_dn.t8 G_source_up.t16 VDD.t56 pfet_03v3 ad=0.156p pd=1.12u as=0.156p ps=1.12u w=0.6u l=0.5u
X164 SD2_1 ITAIL G1_1.t54 VSS.t43 nfet_03v3 ad=0.26p pd=1.52u as=0.44p ps=2.88u w=1u l=0.5u
X165 G_source_up G_source_up.t10 VDD.t31 VDD.t30 pfet_03v3 ad=0.156p pd=1.12u as=0.156p ps=1.12u w=0.6u l=0.5u
X166 G2_1 ITAIL.t8 ITAIL.t9 VSS.t0 nfet_03v3 ad=0.26p pd=1.52u as=0.26p ps=1.52u w=1u l=0.5u
X167 G2_1 G2_1.t45 VSS.t83 VSS.t61 nfet_03v3 ad=0.26p pd=1.52u as=0.26p ps=1.52u w=1u l=0.5u
X168 VSS G_sink_dn.t12 G_sink_dn.t13 VSS.t12 nfet_03v3 ad=0.156p pd=1.12u as=0.156p ps=1.12u w=0.6u l=0.5u
X169 G1_2 G1_1.t6 G1_1.t7 VDD.t13 pfet_03v3 ad=0.26p pd=1.52u as=0.26p ps=1.52u w=1u l=0.5u
X170 ITAIL ITAIL.t6 G2_1.t6 VSS.t24 nfet_03v3 ad=0.26p pd=1.52u as=0.26p ps=1.52u w=1u l=0.5u
X171 VDD G_source_up.t32 A1.t3 VDD.t9 pfet_03v3 ad=0.156p pd=1.12u as=0.156p ps=1.12u w=0.6u l=0.5u
X172 VDD G1_2.t71 SD1_1.t5 VDD.t83 pfet_03v3 ad=0.104p pd=0.92u as=0.104p ps=0.92u w=0.4u l=0.5u
X173 G1_1 G1_1.t4 G1_2.t6 VDD.t10 pfet_03v3 ad=0.26p pd=1.52u as=0.26p ps=1.52u w=1u l=0.5u
X174 G1_2 G1_2.t19 VDD.t112 VDD.t88 pfet_03v3 ad=0.26p pd=1.52u as=0.26p ps=1.52u w=1u l=0.5u
X175 G_source_dn G_sink_up.t40 SD0_1.t2 VSS.t4 nfet_03v3 ad=0.156p pd=1.12u as=0.156p ps=1.12u w=0.6u l=0.5u
X176 SD2_1 ITAIL G1_1.t53 VSS.t22 nfet_03v3 ad=0.26p pd=1.52u as=0.26p ps=1.52u w=1u l=0.5u
X177 VDD G1_2.t17 G1_2.t18 VDD.t78 pfet_03v3 ad=0.26p pd=1.52u as=0.26p ps=1.52u w=1u l=0.5u
X178 VSS G2_1.t19 G2_1.t20 VSS.t16 nfet_03v3 ad=0.26p pd=1.52u as=0.26p ps=1.52u w=1u l=0.5u
X179 VDD G_source_up.t2 G_source_up.t3 VDD.t25 pfet_03v3 ad=0.264p pd=2.08u as=0.156p ps=1.12u w=0.6u l=0.5u
X180 G1_1 G1_1.t2 G1_2.t5 VDD.t0 pfet_03v3 ad=0.26p pd=1.52u as=0.26p ps=1.52u w=1u l=0.5u
X181 ITAIL ITAIL.t4 G2_1.t5 VSS.t23 nfet_03v3 ad=0.26p pd=1.52u as=0.26p ps=1.52u w=1u l=0.5u
X182 VSS G_sink_dn.t10 G_sink_dn.t11 VSS.t2 nfet_03v3 ad=0.264p pd=2.08u as=0.156p ps=1.12u w=0.6u l=0.5u
X183 VSS G_sink_dn.t41 A2.t9 VSS.t69 nfet_03v3 ad=0.156p pd=1.12u as=0.156p ps=1.12u w=0.6u l=0.5u
X184 G_sink_up G_sink_up.t12 G_sink_dn.t1 VSS.t34 nfet_03v3 ad=0.156p pd=1.12u as=0.156p ps=1.12u w=0.6u l=0.5u
X185 SD2_1 ITAIL.t57 G1_1.t52 VSS.t61 nfet_03v3 ad=0.26p pd=1.52u as=0.26p ps=1.52u w=1u l=0.5u
X186 SD0_1 G_sink_up.t42 G_source_dn.t6 VSS.t63 nfet_03v3 ad=0.156p pd=1.12u as=0.264p ps=2.08u w=0.6u l=0.5u
X187 VDD G1_2.t15 G1_2.t16 VDD.t83 pfet_03v3 ad=0.26p pd=1.52u as=0.26p ps=1.52u w=1u l=0.5u
X188 G1_2 G1_1.t0 G1_1.t1 VDD.t62 pfet_03v3 ad=0.26p pd=1.52u as=0.26p ps=1.52u w=1u l=0.5u
X189 A2 G_sink_up.t43 ITAIL_SINK.t2 VSS.t25 nfet_03v3 ad=0.156p pd=1.12u as=0.264p ps=2.08u w=0.6u l=0.5u
X190 G1_2 G1_2.t13 VDD.t82 VDD.t81 pfet_03v3 ad=0.26p pd=1.52u as=0.26p ps=1.52u w=1u l=0.5u
X191 G2_1 ITAIL.t2 ITAIL.t3 VSS.t60 nfet_03v3 ad=0.26p pd=1.52u as=0.26p ps=1.52u w=1u l=0.5u
X192 G2_1 G2_1.t39 VSS.t74 VSS.t17 nfet_03v3 ad=0.26p pd=1.52u as=0.26p ps=1.52u w=1u l=0.5u
X193 SD2_1 ITAIL.t58 G1_1.t51 VSS.t0 nfet_03v3 ad=0.26p pd=1.52u as=0.26p ps=1.52u w=1u l=0.5u
X194 A1 G_source_dn.t34 ITAIL_SRC.t1 VDD.t18 pfet_03v3 ad=0.156p pd=1.12u as=0.156p ps=1.12u w=0.6u l=0.5u
X195 SD1_1 G1_2.t74 VDD.t92 VDD.t86 pfet_03v3 ad=0.104p pd=0.92u as=0.104p ps=0.92u w=0.4u l=0.5u
X196 G1_2 G1_2.t11 VDD.t76 VDD.t53 pfet_03v3 ad=0.26p pd=1.52u as=0.26p ps=1.52u w=1u l=0.5u
X197 G_sink_dn G_sink_dn.t8 VSS.t59 VSS.t1 nfet_03v3 ad=0.156p pd=1.12u as=0.264p ps=2.08u w=0.6u l=0.5u
X198 G1_1 ITAIL.t59 SD2_1.t2 VSS.t41 nfet_03v3 ad=0.26p pd=1.52u as=0.26p ps=1.52u w=1u l=0.5u
X199 SD2_1 G2_1.t84 VSS.t80 VSS.t46 nfet_03v3 ad=0.26p pd=1.52u as=0.26p ps=1.52u w=1u l=0.5u
X200 VSS G2_1.t85 SD2_1.t23 VSS.t54 nfet_03v3 ad=0.26p pd=1.52u as=0.26p ps=1.52u w=1u l=0.5u
X201 A1 G_source_up.t33 VDD.t24 VDD.t23 pfet_03v3 ad=0.156p pd=1.12u as=0.156p ps=1.12u w=0.6u l=0.5u
X202 VSS G_sink_dn.t43 A2.t8 VSS.t8 nfet_03v3 ad=0.156p pd=1.12u as=0.156p ps=1.12u w=0.6u l=0.5u
X203 G2_1 G2_1.t53 VSS.t73 VSS.t42 nfet_03v3 ad=0.26p pd=1.52u as=0.26p ps=1.52u w=1u l=0.5u
X204 G1_1 ITAIL SD2_1.t1 VSS.t23 nfet_03v3 ad=0.26p pd=1.52u as=0.26p ps=1.52u w=1u l=0.5u
X205 VDD G_source_up.t34 A1.t1 VDD.t20 pfet_03v3 ad=0.156p pd=1.12u as=0.156p ps=1.12u w=0.6u l=0.5u
X206 G1_2 G1_2.t9 VDD.t75 VDD.t54 pfet_03v3 ad=0.26p pd=1.52u as=0.26p ps=1.52u w=1u l=0.5u
X207 VDD G1_2.t77 SD1_1.t3 VDD.t98 pfet_03v3 ad=0.104p pd=0.92u as=0.104p ps=0.92u w=0.4u l=0.5u
X208 G2_1 ITAIL.t0 ITAIL.t1 VSS.t18 nfet_03v3 ad=0.26p pd=1.52u as=0.26p ps=1.52u w=1u l=0.5u
X209 VDD G1_2.t78 SD1_1.t2 VDD.t95 pfet_03v3 ad=0.104p pd=0.92u as=0.104p ps=0.92u w=0.4u l=0.5u
X210 A1 G_source_up.t35 VDD.t19 VDD.t18 pfet_03v3 ad=0.156p pd=1.12u as=0.156p ps=1.12u w=0.6u l=0.5u
X211 VDD G_source_up.t0 G_source_up.t1 VDD.t15 pfet_03v3 ad=0.156p pd=1.12u as=0.156p ps=1.12u w=0.6u l=0.5u
X212 G1_2 G1_2.t7 VDD.t87 VDD.t86 pfet_03v3 ad=0.26p pd=1.52u as=0.26p ps=1.52u w=1u l=0.5u
X213 SD2_1 ITAIL G1_1.t50 VSS.t42 nfet_03v3 ad=0.26p pd=1.52u as=0.26p ps=1.52u w=1u l=0.5u
X214 G_source_dn G_sink_up.t44 SD0_1.t0 VSS.t29 nfet_03v3 ad=0.156p pd=1.12u as=0.156p ps=1.12u w=0.6u l=0.5u
X215 G_sink_up G_sink_up.t24 G_sink_dn.t0 VSS.t7 nfet_03v3 ad=0.156p pd=1.12u as=0.156p ps=1.12u w=0.6u l=0.5u
X216 VSS G2_1.t87 SD2_1.t22 VSS.t45 nfet_03v3 ad=0.26p pd=1.52u as=0.26p ps=1.52u w=1u l=0.5u
X217 SD2_1 G2_1.t88 VSS.t75 VSS.t65 nfet_03v3 ad=0.26p pd=1.52u as=0.26p ps=1.52u w=1u l=0.5u
X218 A1 G_source_dn.t35 ITAIL_SRC.t0 VDD.t23 pfet_03v3 ad=0.156p pd=1.12u as=0.156p ps=1.12u w=0.6u l=0.5u
X219 SD2_1 G2_1.t89 VSS.t72 VSS.t17 nfet_03v3 ad=0.26p pd=1.52u as=0.26p ps=1.52u w=1u l=0.5u
R0 G_source_up.n38 G_source_up.n37 95.8364
R1 G_source_up.n34 G_source_up.t29 84.6824
R2 G_source_up.n36 G_source_up.n35 68.6827
R3 G_source_up.n37 G_source_up.t33 32.5342
R4 G_source_up.n13 G_source_up.n12 27.2758
R5 G_source_up.n21 G_source_up.n20 27.2758
R6 G_source_up.n29 G_source_up.n28 27.2758
R7 G_source_up.n39 G_source_up.n38 20.988
R8 G_source_up.n35 G_source_up.n34 14.325
R9 G_source_up.n34 G_source_up.t32 13.9435
R10 G_source_up.n35 G_source_up.t35 13.9435
R11 G_source_up.n37 G_source_up.t28 13.0675
R12 G_source_up.n38 G_source_up.t24 13.0675
R13 G_source_up.n36 G_source_up.t25 12.6295
R14 G_source_up.n39 G_source_up.t34 11.5326
R15 G_source_up.n6 G_source_up.t2 10.4831
R16 G_source_up.n41 G_source_up.t14 9.08115
R17 G_source_up.n12 G_source_up.t10 7.5925
R18 G_source_up.n13 G_source_up.t6 7.5925
R19 G_source_up.n20 G_source_up.t8 7.5925
R20 G_source_up.n21 G_source_up.t4 7.5925
R21 G_source_up.n28 G_source_up.t12 7.5925
R22 G_source_up.n29 G_source_up.t0 7.5925
R23 G_source_up.n40 G_source_up.n39 7.36467
R24 G_source_up.n40 G_source_up.n36 5.1305
R25 G_source_up.n42 G_source_up.n40 4.28043
R26 G_source_up.n7 G_source_up.n6 4.0005
R27 G_source_up.n11 G_source_up.n10 4.0005
R28 G_source_up.n15 G_source_up.n14 4.0005
R29 G_source_up.n19 G_source_up.n18 4.0005
R30 G_source_up.n23 G_source_up.n22 4.0005
R31 G_source_up.n27 G_source_up.n26 4.0005
R32 G_source_up.n33 G_source_up.n30 4.0005
R33 G_source_up.n49 G_source_up.t16 3.03383
R34 G_source_up.n49 G_source_up.n48 3.03383
R35 G_source_up.n25 G_source_up.t20 3.03383
R36 G_source_up.n25 G_source_up.n24 3.03383
R37 G_source_up.n1 G_source_up.t5 3.03383
R38 G_source_up.n1 G_source_up.n0 3.03383
R39 G_source_up.n17 G_source_up.t21 3.03383
R40 G_source_up.n17 G_source_up.n16 3.03383
R41 G_source_up.n3 G_source_up.t7 3.03383
R42 G_source_up.n3 G_source_up.n2 3.03383
R43 G_source_up.n9 G_source_up.t19 3.03383
R44 G_source_up.n9 G_source_up.n8 3.03383
R45 G_source_up.n5 G_source_up.t3 3.03383
R46 G_source_up.n5 G_source_up.n4 3.03383
R47 G_source_up.n32 G_source_up.t1 3.03383
R48 G_source_up.n32 G_source_up.n31 3.03383
R49 G_source_up.n26 G_source_up.n25 2.84924
R50 G_source_up.n23 G_source_up.n1 2.84924
R51 G_source_up.n18 G_source_up.n17 2.84924
R52 G_source_up.n15 G_source_up.n3 2.84924
R53 G_source_up.n10 G_source_up.n9 2.84924
R54 G_source_up.n33 G_source_up.n32 2.84924
R55 G_source_up.n7 G_source_up.n5 2.84872
R56 G_source_up.n45 G_source_up.n44 2.66717
R57 G_source_up.n50 G_source_up.n49 2.6005
R58 G_source_up.n12 G_source_up.n11 2.59881
R59 G_source_up.n14 G_source_up.n13 2.59881
R60 G_source_up.n20 G_source_up.n19 2.59881
R61 G_source_up.n22 G_source_up.n21 2.59881
R62 G_source_up.n28 G_source_up.n27 2.59881
R63 G_source_up.n30 G_source_up.n29 2.59881
R64 G_source_up.n42 G_source_up.n41 2.44013
R65 G_source_up.n44 G_source_up.n43 2.28948
R66 G_source_up.n47 G_source_up.n33 0.742375
R67 G_source_up.n10 G_source_up.n7 0.728327
R68 G_source_up.n26 G_source_up.n23 0.724527
R69 G_source_up.n18 G_source_up.n15 0.720586
R70 G_source_up.n50 G_source_up.n47 0.213761
R71 G_source_up G_source_up.n50 0.203898
R72 G_source_up.n46 G_source_up.n45 0.0355526
R73 G_source_up.n47 G_source_up.n46 0.0222895
R74 G_source_up.n45 G_source_up.n42 0.00144737
R75 VDD.n151 VDD.t43 151.695
R76 VDD.n151 VDD.t36 148.749
R77 VDD.n136 VDD.t25 122.648
R78 VDD.n203 VDD.t40 122.444
R79 VDD.n148 VDD.t80 113.403
R80 VDD.n153 VDD.t57 110.457
R81 VDD.n164 VDD.t56 81.002
R82 VDD.n137 VDD.t64 78.0565
R83 VDD.n179 VDD.t45 76.1029
R84 VDD.n146 VDD.t104 75.111
R85 VDD.n155 VDD.t79 72.1654
R86 VDD.n190 VDD.t34 64.0119
R87 VDD.n76 VDD.t78 56.5849
R88 VDD.n60 VDD.t54 54.5272
R89 VDD.n60 VDD.t3 50.412
R90 VDD.n76 VDD.t86 48.3544
R91 VDD.n180 VDD.t23 46.9422
R92 VDD.n189 VDD.t20 45.5197
R93 VDD.n91 VDD.t10 45.268
R94 VDD.n75 VDD.t53 43.2104
R95 VDD.n162 VDD.t101 42.7104
R96 VDD.n59 VDD.t67 41.1528
R97 VDD.n139 VDD.t77 39.7649
R98 VDD.n61 VDD.t58 37.0375
R99 VDD.n144 VDD.t50 36.8194
R100 VDD.n81 VDD.t0 34.9799
R101 VDD.n157 VDD.t32 33.8738
R102 VDD.n93 VDD.t70 32.4079
R103 VDD.n90 VDD.t81 31.8935
R104 VDD.n74 VDD.t95 29.8359
R105 VDD.n183 VDD.t8 28.45
R106 VDD.n186 VDD.t48 27.0275
R107 VDD.n66 VDD.t83 23.663
R108 VDD.n82 VDD.t55 21.6054
R109 VDD.n89 VDD.t98 18.519
R110 VDD.n69 VDD.t88 16.4614
R111 VDD.n67 VDD.t13 10.2886
R112 VDD.n184 VDD.t18 9.95783
R113 VDD.n185 VDD.t9 8.53535
R114 VDD.n83 VDD.t7 8.23095
R115 VDD.n108 VDD.t71 7.62593
R116 VDD.n134 VDD.n7 7.1505
R117 VDD.n57 VDD.n56 6.54575
R118 VDD.n102 VDD.n101 6.50606
R119 VDD.n191 VDD.n190 6.40831
R120 VDD.n110 VDD.n91 6.3005
R121 VDD.n111 VDD.n90 6.3005
R122 VDD.n112 VDD.n89 6.3005
R123 VDD.n114 VDD.n84 6.3005
R124 VDD.n115 VDD.n83 6.3005
R125 VDD.n116 VDD.n82 6.3005
R126 VDD.n117 VDD.n81 6.3005
R127 VDD.n119 VDD.n76 6.3005
R128 VDD.n120 VDD.n75 6.3005
R129 VDD.n121 VDD.n74 6.3005
R130 VDD.n123 VDD.n69 6.3005
R131 VDD.n124 VDD.n68 6.3005
R132 VDD.n125 VDD.n67 6.3005
R133 VDD.n126 VDD.n66 6.3005
R134 VDD.n128 VDD.n61 6.3005
R135 VDD.n129 VDD.n60 6.3005
R136 VDD.n130 VDD.n59 6.3005
R137 VDD.n12 VDD.n10 6.3005
R138 VDD.n96 VDD.n94 6.3005
R139 VDD.n12 VDD.n9 6.3005
R140 VDD.n191 VDD.n189 6.3005
R141 VDD.n193 VDD.n186 6.3005
R142 VDD.n194 VDD.n185 6.3005
R143 VDD.n195 VDD.n184 6.3005
R144 VDD.n196 VDD.n183 6.3005
R145 VDD.n198 VDD.n180 6.3005
R146 VDD.n199 VDD.n179 6.3005
R147 VDD.n165 VDD.n164 6.3005
R148 VDD.n163 VDD.n162 6.3005
R149 VDD.n161 VDD.n160 6.3005
R150 VDD.n158 VDD.n157 6.3005
R151 VDD.n156 VDD.n155 6.3005
R152 VDD.n154 VDD.n153 6.3005
R153 VDD.n152 VDD.n151 6.3005
R154 VDD.n149 VDD.n148 6.3005
R155 VDD.n147 VDD.n146 6.3005
R156 VDD.n145 VDD.n144 6.3005
R157 VDD.n142 VDD.n141 6.3005
R158 VDD.n140 VDD.n139 6.3005
R159 VDD.n138 VDD.n137 6.3005
R160 VDD.n201 VDD.t41 6.21492
R161 VDD.n135 VDD.n6 6.21492
R162 VDD.n169 VDD.t35 6.18924
R163 VDD.n177 VDD.n166 6.18362
R164 VDD.n84 VDD.t62 5.14453
R165 VDD.n94 VDD.n93 5.14453
R166 VDD.n108 VDD.t103 5.00941
R167 VDD.n132 VDD.n58 5.00941
R168 VDD.n63 VDD.t59 4.5505
R169 VDD.n63 VDD.n62 4.5505
R170 VDD.n71 VDD.t89 4.5505
R171 VDD.n71 VDD.n70 4.5505
R172 VDD.n78 VDD.t92 4.5505
R173 VDD.n78 VDD.n77 4.5505
R174 VDD.n86 VDD.t63 4.5505
R175 VDD.n86 VDD.n85 4.5505
R176 VDD.n12 VDD.n11 4.5005
R177 VDD.n160 VDD.t15 4.41876
R178 VDD.n16 VDD.n15 3.60132
R179 VDD.n53 VDD.n23 3.18941
R180 VDD.n48 VDD.n25 3.18941
R181 VDD.n43 VDD.n27 3.18941
R182 VDD.n39 VDD.n29 3.18941
R183 VDD.n34 VDD.n31 3.18941
R184 VDD.n127 VDD.n65 3.18941
R185 VDD.n122 VDD.n73 3.18941
R186 VDD.n118 VDD.n80 3.18941
R187 VDD.n113 VDD.n88 3.18941
R188 VDD.n159 VDD.n1 3.18159
R189 VDD.n150 VDD.n3 3.18159
R190 VDD.n143 VDD.n5 3.18159
R191 VDD.n107 VDD.n106 3.15175
R192 VDD.n18 VDD.n17 3.15175
R193 VDD.n17 VDD.n16 3.151
R194 VDD.n106 VDD.n105 3.151
R195 VDD.n16 VDD.n14 3.151
R196 VDD.n105 VDD.n104 3.151
R197 VDD.n204 VDD.n203 3.1505
R198 VDD.n173 VDD.n168 3.15028
R199 VDD.n197 VDD.n182 3.11115
R200 VDD.n192 VDD.n188 3.11115
R201 VDD.n68 VDD.t6 3.08692
R202 VDD.n127 VDD.n63 3.07593
R203 VDD.n122 VDD.n71 3.07593
R204 VDD.n118 VDD.n78 3.07593
R205 VDD.n113 VDD.n86 3.07593
R206 VDD.n182 VDD.t24 3.03383
R207 VDD.n182 VDD.n181 3.03383
R208 VDD.n188 VDD.t49 3.03383
R209 VDD.n188 VDD.n187 3.03383
R210 VDD.n168 VDD.t19 3.03383
R211 VDD.n168 VDD.n167 3.03383
R212 VDD.n1 VDD.t33 3.03383
R213 VDD.n1 VDD.n0 3.03383
R214 VDD.n3 VDD.t44 3.03383
R215 VDD.n3 VDD.n2 3.03383
R216 VDD.n5 VDD.t31 3.03383
R217 VDD.n5 VDD.n4 3.03383
R218 VDD.n18 VDD.n13 2.76626
R219 VDD.n20 VDD.n19 2.75233
R220 VDD.n102 VDD.n96 2.62983
R221 VDD.n100 VDD.n98 2.62936
R222 VDD.n55 VDD.n21 2.62088
R223 VDD.n135 VDD.n134 2.24061
R224 VDD.n105 VDD.n103 2.05811
R225 VDD.n23 VDD.t75 1.8205
R226 VDD.n23 VDD.n22 1.8205
R227 VDD.n25 VDD.t14 1.8205
R228 VDD.n25 VDD.n24 1.8205
R229 VDD.n27 VDD.t76 1.8205
R230 VDD.n27 VDD.n26 1.8205
R231 VDD.n29 VDD.t109 1.8205
R232 VDD.n29 VDD.n28 1.8205
R233 VDD.n31 VDD.t82 1.8205
R234 VDD.n31 VDD.n30 1.8205
R235 VDD.n65 VDD.t102 1.8205
R236 VDD.n65 VDD.n64 1.8205
R237 VDD.n73 VDD.t112 1.8205
R238 VDD.n73 VDD.n72 1.8205
R239 VDD.n80 VDD.t87 1.8205
R240 VDD.n80 VDD.n79 1.8205
R241 VDD.n88 VDD.t74 1.8205