* NGSPICE file created from cap_240p_flat.ext - technology: gf180mcuC

.subckt cap_240p_pex P M
X0 P.t0 M.t131 cap_mim_2f0_m4m5_noshield c_width=31u c_length=29u
X1 P.t1 M.t130 cap_mim_2f0_m4m5_noshield c_width=31u c_length=29u
X2 P.t2 M.t129 cap_mim_2f0_m4m5_noshield c_width=31u c_length=29u
X3 P.t3 M.t128 cap_mim_2f0_m4m5_noshield c_width=31u c_length=29u
X4 P.t4 M.t127 cap_mim_2f0_m4m5_noshield c_width=31u c_length=29u
X5 P.t5 M.t126 cap_mim_2f0_m4m5_noshield c_width=31u c_length=29u
X6 P.t6 M.t125 cap_mim_2f0_m4m5_noshield c_width=31u c_length=29u
X7 P.t7 M.t124 cap_mim_2f0_m4m5_noshield c_width=31u c_length=29u
X8 P.t8 M.t123 cap_mim_2f0_m4m5_noshield c_width=31u c_length=29u
X9 P.t9 M.t122 cap_mim_2f0_m4m5_noshield c_width=31u c_length=29u
X10 P.t10 M.t121 cap_mim_2f0_m4m5_noshield c_width=31u c_length=29u
X11 P.t11 M.t120 cap_mim_2f0_m4m5_noshield c_width=31u c_length=29u
X12 P.t12 M.t119 cap_mim_2f0_m4m5_noshield c_width=31u c_length=29u
X13 P.t13 M.t118 cap_mim_2f0_m4m5_noshield c_width=31u c_length=29u
X14 P.t14 M.t117 cap_mim_2f0_m4m5_noshield c_width=31u c_length=29u
X15 P.t15 M.t116 cap_mim_2f0_m4m5_noshield c_width=31u c_length=29u
X16 P.t16 M.t115 cap_mim_2f0_m4m5_noshield c_width=31u c_length=29u
X17 P.t17 M.t114 cap_mim_2f0_m4m5_noshield c_width=31u c_length=29u
X18 P.t18 M.t113 cap_mim_2f0_m4m5_noshield c_width=31u c_length=29u
X19 P.t19 M.t112 cap_mim_2f0_m4m5_noshield c_width=31u c_length=29u
X20 P.t20 M.t111 cap_mim_2f0_m4m5_noshield c_width=31u c_length=29u
X21 P.t21 M.t110 cap_mim_2f0_m4m5_noshield c_width=31u c_length=29u
X22 P.t22 M.t109 cap_mim_2f0_m4m5_noshield c_width=31u c_length=29u
X23 P.t23 M.t108 cap_mim_2f0_m4m5_noshield c_width=31u c_length=29u
X24 P.t24 M.t107 cap_mim_2f0_m4m5_noshield c_width=31u c_length=29u
X25 P.t25 M.t106 cap_mim_2f0_m4m5_noshield c_width=31u c_length=29u
X26 P.t26 M.t105 cap_mim_2f0_m4m5_noshield c_width=31u c_length=29u
X27 P.t27 M.t104 cap_mim_2f0_m4m5_noshield c_width=31u c_length=29u
X28 P.t28 M.t103 cap_mim_2f0_m4m5_noshield c_width=31u c_length=29u
X29 P.t29 M.t102 cap_mim_2f0_m4m5_noshield c_width=31u c_length=29u
X30 P.t30 M.t101 cap_mim_2f0_m4m5_noshield c_width=31u c_length=29u
X31 P.t31 M.t100 cap_mim_2f0_m4m5_noshield c_width=31u c_length=29u
X32 P.t32 M.t99 cap_mim_2f0_m4m5_noshield c_width=31u c_length=29u
X33 P.t33 M.t98 cap_mim_2f0_m4m5_noshield c_width=31u c_length=29u
X34 P.t34 M.t97 cap_mim_2f0_m4m5_noshield c_width=31u c_length=29u
X35 P.t35 M.t96 cap_mim_2f0_m4m5_noshield c_width=31u c_length=29u
X36 P.t36 M.t95 cap_mim_2f0_m4m5_noshield c_width=31u c_length=29u
X37 P.t37 M.t94 cap_mim_2f0_m4m5_noshield c_width=31u c_length=29u
X38 P.t38 M.t93 cap_mim_2f0_m4m5_noshield c_width=31u c_length=29u
X39 P.t39 M.t92 cap_mim_2f0_m4m5_noshield c_width=31u c_length=29u
X40 P.t40 M.t91 cap_mim_2f0_m4m5_noshield c_width=31u c_length=29u
X41 P.t41 M.t90 cap_mim_2f0_m4m5_noshield c_width=31u c_length=29u
X42 P.t42 M.t89 cap_mim_2f0_m4m5_noshield c_width=31u c_length=29u
X43 P.t43 M.t88 cap_mim_2f0_m4m5_noshield c_width=31u c_length=29u
X44 P.t44 M.t87 cap_mim_2f0_m4m5_noshield c_width=31u c_length=29u
X45 P.t45 M.t86 cap_mim_2f0_m4m5_noshield c_width=31u c_length=29u
X46 P.t46 M.t85 cap_mim_2f0_m4m5_noshield c_width=31u c_length=29u
X47 P.t47 M.t84 cap_mim_2f0_m4m5_noshield c_width=31u c_length=29u
X48 P.t48 M.t83 cap_mim_2f0_m4m5_noshield c_width=31u c_length=29u
X49 P.t49 M.t82 cap_mim_2f0_m4m5_noshield c_width=31u c_length=29u
X50 P.t50 M.t81 cap_mim_2f0_m4m5_noshield c_width=31u c_length=29u
X51 P.t51 M.t80 cap_mim_2f0_m4m5_noshield c_width=31u c_length=29u
X52 P.t52 M.t79 cap_mim_2f0_m4m5_noshield c_width=31u c_length=29u
X53 P.t53 M.t78 cap_mim_2f0_m4m5_noshield c_width=31u c_length=29u
X54 P.t54 M.t77 cap_mim_2f0_m4m5_noshield c_width=31u c_length=29u
X55 P.t55 M.t76 cap_mim_2f0_m4m5_noshield c_width=31u c_length=29u
X56 P.t56 M.t75 cap_mim_2f0_m4m5_noshield c_width=31u c_length=29u
X57 P.t57 M.t74 cap_mim_2f0_m4m5_noshield c_width=31u c_length=29u
X58 P.t58 M.t73 cap_mim_2f0_m4m5_noshield c_width=31u c_length=29u
X59 P.t59 M.t72 cap_mim_2f0_m4m5_noshield c_width=31u c_length=29u
X60 P.t60 M.t71 cap_mim_2f0_m4m5_noshield c_width=31u c_length=29u
X61 P.t61 M.t70 cap_mim_2f0_m4m5_noshield c_width=31u c_length=29u
X62 P.t62 M.t69 cap_mim_2f0_m4m5_noshield c_width=31u c_length=29u
X63 P.t63 M.t68 cap_mim_2f0_m4m5_noshield c_width=31u c_length=29u
X64 P.t64 M.t67 cap_mim_2f0_m4m5_noshield c_width=31u c_length=29u
X65 P.t65 M.t66 cap_mim_2f0_m4m5_noshield c_width=31u c_length=29u
X66 P.t66 M.t65 cap_mim_2f0_m4m5_noshield c_width=31u c_length=29u
X67 P.t67 M.t64 cap_mim_2f0_m4m5_noshield c_width=31u c_length=29u
X68 P.t68 M.t63 cap_mim_2f0_m4m5_noshield c_width=31u c_length=29u
X69 P.t69 M.t62 cap_mim_2f0_m4m5_noshield c_width=31u c_length=29u
X70 P.t70 M.t61 cap_mim_2f0_m4m5_noshield c_width=31u c_length=29u
X71 P.t71 M.t60 cap_mim_2f0_m4m5_noshield c_width=31u c_length=29u
X72 P.t72 M.t59 cap_mim_2f0_m4m5_noshield c_width=31u c_length=29u
X73 P.t73 M.t58 cap_mim_2f0_m4m5_noshield c_width=31u c_length=29u
X74 P.t74 M.t57 cap_mim_2f0_m4m5_noshield c_width=31u c_length=29u
X75 P.t75 M.t56 cap_mim_2f0_m4m5_noshield c_width=31u c_length=29u
X76 P.t76 M.t55 cap_mim_2f0_m4m5_noshield c_width=31u c_length=29u
X77 P.t77 M.t54 cap_mim_2f0_m4m5_noshield c_width=31u c_length=29u
X78 P.t78 M.t53 cap_mim_2f0_m4m5_noshield c_width=31u c_length=29u
X79 P.t79 M.t52 cap_mim_2f0_m4m5_noshield c_width=31u c_length=29u
X80 P.t80 M.t51 cap_mim_2f0_m4m5_noshield c_width=31u c_length=29u
X81 P.t81 M.t50 cap_mim_2f0_m4m5_noshield c_width=31u c_length=29u
X82 P.t82 M.t49 cap_mim_2f0_m4m5_noshield c_width=31u c_length=29u
X83 P.t83 M.t48 cap_mim_2f0_m4m5_noshield c_width=31u c_length=29u
X84 P.t84 M.t47 cap_mim_2f0_m4m5_noshield c_width=31u c_length=29u
X85 P.t85 M.t46 cap_mim_2f0_m4m5_noshield c_width=31u c_length=29u
X86 P.t86 M.t45 cap_mim_2f0_m4m5_noshield c_width=31u c_length=29u
X87 P.t87 M.t44 cap_mim_2f0_m4m5_noshield c_width=31u c_length=29u
X88 P.t88 M.t43 cap_mim_2f0_m4m5_noshield c_width=31u c_length=29u
X89 P.t89 M.t42 cap_mim_2f0_m4m5_noshield c_width=31u c_length=29u
X90 P.t90 M.t41 cap_mim_2f0_m4m5_noshield c_width=31u c_length=29u
X91 P.t91 M.t40 cap_mim_2f0_m4m5_noshield c_width=31u c_length=29u
X92 P.t92 M.t39 cap_mim_2f0_m4m5_noshield c_width=31u c_length=29u
X93 P.t93 M.t38 cap_mim_2f0_m4m5_noshield c_width=31u c_length=29u
X94 P.t94 M.t37 cap_mim_2f0_m4m5_noshield c_width=31u c_length=29u
X95 P.t95 M.t36 cap_mim_2f0_m4m5_noshield c_width=31u c_length=29u
X96 P.t96 M.t35 cap_mim_2f0_m4m5_noshield c_width=31u c_length=29u
X97 P.t97 M.t34 cap_mim_2f0_m4m5_noshield c_width=31u c_length=29u
X98 P.t98 M.t33 cap_mim_2f0_m4m5_noshield c_width=31u c_length=29u
X99 P.t99 M.t32 cap_mim_2f0_m4m5_noshield c_width=31u c_length=29u
X100 P.t100 M.t31 cap_mim_2f0_m4m5_noshield c_width=31u c_length=29u
X101 P.t101 M.t30 cap_mim_2f0_m4m5_noshield c_width=31u c_length=29u
X102 P.t102 M.t29 cap_mim_2f0_m4m5_noshield c_width=31u c_length=29u
X103 P.t103 M.t28 cap_mim_2f0_m4m5_noshield c_width=31u c_length=29u
X104 P.t104 M.t27 cap_mim_2f0_m4m5_noshield c_width=31u c_length=29u
X105 P.t105 M.t26 cap_mim_2f0_m4m5_noshield c_width=31u c_length=29u
X106 P.t106 M.t25 cap_mim_2f0_m4m5_noshield c_width=31u c_length=29u
X107 P.t107 M.t24 cap_mim_2f0_m4m5_noshield c_width=31u c_length=29u
X108 P.t108 M.t23 cap_mim_2f0_m4m5_noshield c_width=31u c_length=29u
X109 P.t109 M.t22 cap_mim_2f0_m4m5_noshield c_width=31u c_length=29u
X110 P.t110 M.t21 cap_mim_2f0_m4m5_noshield c_width=31u c_length=29u
X111 P.t111 M.t20 cap_mim_2f0_m4m5_noshield c_width=31u c_length=29u
X112 P.t112 M.t19 cap_mim_2f0_m4m5_noshield c_width=31u c_length=29u
X113 P.t113 M.t18 cap_mim_2f0_m4m5_noshield c_width=31u c_length=29u
X114 P.t114 M.t17 cap_mim_2f0_m4m5_noshield c_width=31u c_length=29u
X115 P.t115 M.t16 cap_mim_2f0_m4m5_noshield c_width=31u c_length=29u
X116 P.t116 M.t15 cap_mim_2f0_m4m5_noshield c_width=31u c_length=29u
X117 P.t117 M.t14 cap_mim_2f0_m4m5_noshield c_width=31u c_length=29u
X118 P.t118 M.t13 cap_mim_2f0_m4m5_noshield c_width=31u c_length=29u
X119 P.t119 M.t12 cap_mim_2f0_m4m5_noshield c_width=31u c_length=29u
X120 P.t120 M.t11 cap_mim_2f0_m4m5_noshield c_width=31u c_length=29u
X121 P.t121 M.t10 cap_mim_2f0_m4m5_noshield c_width=31u c_length=29u
X122 P.t122 M.t9 cap_mim_2f0_m4m5_noshield c_width=31u c_length=29u
X123 P.t123 M.t8 cap_mim_2f0_m4m5_noshield c_width=31u c_length=29u
X124 P.t124 M.t7 cap_mim_2f0_m4m5_noshield c_width=31u c_length=29u
X125 P.t125 M.t6 cap_mim_2f0_m4m5_noshield c_width=31u c_length=29u
X126 P.t126 M.t5 cap_mim_2f0_m4m5_noshield c_width=31u c_length=29u
X127 P.t127 M.t4 cap_mim_2f0_m4m5_noshield c_width=31u c_length=29u
X128 P.t128 M.t3 cap_mim_2f0_m4m5_noshield c_width=31u c_length=29u
X129 P.t129 M.t2 cap_mim_2f0_m4m5_noshield c_width=31u c_length=29u
X130 P.t130 M.t1 cap_mim_2f0_m4m5_noshield c_width=31u c_length=29u
X131 P.t131 M.t0 cap_mim_2f0_m4m5_noshield c_width=31u c_length=29u
R0 P.n2017 P.t64 2.38596
R1 P.n3106 P.t74 2.38596
R2 P.n2782 P.t18 2.38596
R3 P.n2511 P.t36 2.38596
R4 P.n2192 P.t119 2.38596
R5 P.n0 P.t24 2.38596
R6 P.n11 P.t82 2.38596
R7 P.n22 P.t27 2.38596
R8 P.n33 P.t112 2.38596
R9 P.n44 P.t129 2.38596
R10 P.n62 P.t14 2.38596
R11 P.n720 P.n719 2.25096
R12 P.n636 P.n635 2.25096
R13 P.n329 P.n328 2.25096
R14 P.n190 P.n189 2.25096
R15 P.n93 P.n92 2.25096
R16 P.n346 P.n345 2.25096
R17 P.n354 P.n353 2.25096
R18 P.n900 P.n899 2.25096
R19 P.n1340 P.n1316 2.25096
R20 P.n1400 P.n1399 2.25096
R21 P.n1682 P.n1681 2.25096
R22 P.n876 P.n875 2.25096
R23 P.n754 P.n753 2.25096
R24 P.n512 P.n511 2.25096
R25 P.n1089 P.n1084 2.25096
R26 P.n1355 P.n1347 2.25096
R27 P.n368 P.n367 2.25096
R28 P.n293 P.n292 2.25096
R29 P.n385 P.n384 2.25096
R30 P.n101 P.n100 2.25096
R31 P.n395 P.n394 2.25096
R32 P.n781 P.n780 2.25096
R33 P.n1047 P.n1046 2.25096
R34 P.n1014 P.n1013 2.25096
R35 P.n713 P.n712 2.25096
R36 P.n1089 P.n1088 2.25096
R37 P.n1038 P.n1037 2.25096
R38 P.n1355 P.n1354 2.25096
R39 P.n1294 P.n1207 2.25096
R40 P.n1547 P.n1546 2.25096
R41 P.n1340 P.n1339 2.25096
R42 P.n1674 P.n1673 2.25096
R43 P.n1738 P.n1737 2.25096
R44 P.n1979 P.n1978 2.25096
R45 P.n1642 P.n1641 2.25096
R46 P.n1294 P.n1293 2.25096
R47 P.n1666 P.n1665 2.25096
R48 P.n1719 P.n1718 2.25096
R49 P.n1971 P.n1970 2.25096
R50 P.n2003 P.n2002 2.25096
R51 P.n2010 P.n2009 2.25096
R52 P.n1745 P.n1744 2.25096
R53 P.n1729 P.n1728 2.25096
R54 P.n1523 P.n1522 2.25096
R55 P.n1841 P.n1840 2.25096
R56 P.n1865 P.n1864 2.25096
R57 P.n1076 P.n1075 2.25096
R58 P.n1393 P.n1392 2.25096
R59 P.n766 P.n765 2.25096
R60 P.n774 P.n773 2.25096
R61 P.n908 P.n907 2.25096
R62 P.n309 P.n308 2.25096
R63 P.n523 P.n522 2.25096
R64 P.n626 P.n625 2.25096
R65 P.n697 P.n696 2.25096
R66 P.n677 P.n676 2.25096
R67 P.n654 P.n653 2.25096
R68 P.n670 P.n669 2.25096
R69 P.n302 P.n301 2.25096
R70 P.n3439 P.n2732 2.25095
R71 P.n3436 P.n2743 2.25095
R72 P.n3694 P.n2170 2.25095
R73 P.n3701 P.n2146 2.25095
R74 P.n3516 P.n2446 2.25095
R75 P.n3533 P.n2245 2.25095
R76 P.n3706 P.n2121 2.25095
R77 P.n3704 P.n2132 2.25095
R78 P.n3699 P.n2160 2.25095
R79 P.n3535 P.n2232 2.25095
R80 P.n3504 P.n2451 2.25095
R81 P.n3575 P.n3574 2.25095
R82 P.n3501 P.n2457 2.25095
R83 P.n3485 P.n2467 2.25095
R84 P.n3471 P.n2510 2.25095
R85 P.n3305 P.n2919 2.25095
R86 P.n3292 P.n2924 2.25095
R87 P.n3402 P.n2781 2.25095
R88 P.n3476 P.n2484 2.25095
R89 P.n3397 P.n3396 2.25095
R90 P.n3397 P.n2913 2.25095
R91 P.n3540 P.n2211 2.25095
R92 P.n3473 P.n2497 2.25095
R93 P.n3305 P.n3304 2.25095
R94 P.n3292 P.n3291 2.25095
R95 P.n3478 P.n2476 2.25095
R96 P.n3465 P.n3464 2.25095
R97 P.n3453 P.n2722 2.25095
R98 P.n3453 P.n2711 2.25095
R99 P.n3465 P.n2625 2.25095
R100 P.n3397 P.n2811 2.25095
R101 P.n3490 P.n2462 2.25095
R102 P.n3528 P.n3527 2.25095
R103 P.n3528 P.n2349 2.25095
R104 P.n3402 P.n2767 2.25095
R105 P.n3416 P.n3415 2.25095
R106 P.n3516 P.n2435 2.25095
R107 P.n3693 P.n3692 2.25095
R108 P.n3577 P.n2191 2.25095
R109 P.n3693 P.n2180 2.25095
R110 P.n3538 P.n2219 2.25095
R111 P.n3417 P.n2753 2.25079
R112 P.n3398 P.n2801 2.25079
R113 P.n413 P.n61 2.25079
R114 P.n426 P.n425 2.25078
R115 P.n2017 P.t12 2.2505
R116 P.n2018 P.t123 2.2505
R117 P.n2019 P.t130 2.2505
R118 P.n2020 P.t77 2.2505
R119 P.n2021 P.t46 2.2505
R120 P.n2022 P.t128 2.2505
R121 P.n2023 P.t109 2.2505
R122 P.n2024 P.t116 2.2505
R123 P.n2025 P.t62 2.2505
R124 P.n2026 P.t121 2.2505
R125 P.n2027 P.t13 2.2505
R126 P.n3106 P.t20 2.2505
R127 P.n3107 P.t126 2.2505
R128 P.n3108 P.t4 2.2505
R129 P.n3109 P.t84 2.2505
R130 P.n3110 P.t50 2.2505
R131 P.n3111 P.t3 2.2505
R132 P.n3112 P.t114 2.2505
R133 P.n3113 P.t122 2.2505
R134 P.n3114 P.t73 2.2505
R135 P.n3115 P.t30 2.2505
R136 P.n3116 P.t51 2.2505
R137 P.n2782 P.t103 2.2505
R138 P.n2783 P.t80 2.2505
R139 P.n2784 P.t92 2.2505
R140 P.n2785 P.t29 2.2505
R141 P.n2786 P.t1 2.2505
R142 P.n2787 P.t90 2.2505
R143 P.n2788 P.t56 2.2505
R144 P.n2789 P.t72 2.2505
R145 P.n2790 P.t16 2.2505
R146 P.n2791 P.t87 2.2505
R147 P.n2792 P.t9 2.2505
R148 P.n2511 P.t113 2.2505
R149 P.n2512 P.t97 2.2505
R150 P.n2513 P.t104 2.2505
R151 P.n2514 P.t40 2.2505
R152 P.n2515 P.t17 2.2505
R153 P.n2516 P.t102 2.2505
R154 P.n2517 P.t78 2.2505
R155 P.n2518 P.t91 2.2505
R156 P.n2519 P.t34 2.2505
R157 P.n2520 P.t37 2.2505
R158 P.n2521 P.t15 2.2505
R159 P.n2192 P.t71 2.2505
R160 P.n2193 P.t43 2.2505
R161 P.n2194 P.t49 2.2505
R162 P.n2195 P.t124 2.2505
R163 P.n2196 P.t107 2.2505
R164 P.n2197 P.t48 2.2505
R165 P.n2198 P.t32 2.2505
R166 P.n2199 P.t39 2.2505
R167 P.n2200 P.t117 2.2505
R168 P.n2201 P.t67 2.2505
R169 P.n2202 P.t60 2.2505
R170 P.n0 P.t105 2.2505
R171 P.n1 P.t83 2.2505
R172 P.n2 P.t95 2.2505
R173 P.n3 P.t31 2.2505
R174 P.n4 P.t5 2.2505
R175 P.n5 P.t94 2.2505
R176 P.n6 P.t61 2.2505
R177 P.n7 P.t75 2.2505
R178 P.n8 P.t19 2.2505
R179 P.n9 P.t21 2.2505
R180 P.n10 P.t57 2.2505
R181 P.n11 P.t28 2.2505
R182 P.n12 P.t0 2.2505
R183 P.n13 P.t10 2.2505
R184 P.n14 P.t93 2.2505
R185 P.n15 P.t59 2.2505
R186 P.n16 P.t8 2.2505
R187 P.n17 P.t120 2.2505
R188 P.n18 P.t125 2.2505
R189 P.n19 P.t81 2.2505
R190 P.n20 P.t2 2.2505
R191 P.n21 P.t70 2.2505
R192 P.n22 P.t106 2.2505
R193 P.n23 P.t88 2.2505
R194 P.n24 P.t98 2.2505
R195 P.n25 P.t35 2.2505
R196 P.n26 P.t7 2.2505
R197 P.n27 P.t96 2.2505
R198 P.n28 P.t65 2.2505
R199 P.n29 P.t79 2.2505
R200 P.n30 P.t25 2.2505
R201 P.n31 P.t54 2.2505
R202 P.n32 P.t23 2.2505
R203 P.n33 P.t55 2.2505
R204 P.n34 P.t38 2.2505
R205 P.n35 P.t44 2.2505
R206 P.n36 P.t118 2.2505
R207 P.n37 P.t101 2.2505
R208 P.n38 P.t42 2.2505
R209 P.n39 P.t22 2.2505
R210 P.n40 P.t33 2.2505
R211 P.n41 P.t110 2.2505
R212 P.n42 P.t99 2.2505
R213 P.n43 P.t66 2.2505
R214 P.n44 P.t85 2.2505
R215 P.n45 P.t52 2.2505
R216 P.n46 P.t68 2.2505
R217 P.n47 P.t6 2.2505
R218 P.n48 P.t115 2.2505
R219 P.n49 P.t63 2.2505
R220 P.n50 P.t41 2.2505
R221 P.n51 P.t47 2.2505
R222 P.n52 P.t127 2.2505
R223 P.n53 P.t45 2.2505
R224 P.n54 P.t111 2.2505
R225 P.n62 P.t100 2.2505
R226 P.n63 P.t76 2.2505
R227 P.n64 P.t89 2.2505
R228 P.n65 P.t26 2.2505
R229 P.n66 P.t131 2.2505
R230 P.n67 P.t86 2.2505
R231 P.n68 P.t53 2.2505
R232 P.n69 P.t69 2.2505
R233 P.n70 P.t11 2.2505
R234 P.n71 P.t58 2.2505
R235 P.n72 P.t108 2.2505
R236 P.n2857 P.n2856 1.13834
R237 P.n2291 P.n2290 1.13834
R238 P.n3628 P.n3627 1.13834
R239 P.n2570 P.n2569 1.13834
R240 P.n2999 P.n2998 1.13834
R241 P.n1903 P.n1902 1.13792
R242 P.n1465 P.n1464 1.13792
R243 P.n1150 P.n1149 1.13792
R244 P.n946 P.n945 1.13792
R245 P.n230 P.n229 1.13792
R246 P.n570 P.n569 1.13792
R247 P.n3084 P.n3083 1.1255
R248 P.n3266 P.n3265 1.1255
R249 P.n2884 P.n2883 0.9005
R250 P.n3368 P.n3367 0.9005
R251 P.n2408 P.n2407 0.9005
R252 P.n2318 P.n2317 0.9005
R253 P.n2083 P.n2082 0.9005
R254 P.n3655 P.n3654 0.9005
R255 P.n1930 P.n1929 0.9005
R256 P.n1802 P.n1801 0.9005
R257 P.n1492 P.n1491 0.9005
R258 P.n1603 P.n1602 0.9005
R259 P.n1177 P.n1176 0.9005
R260 P.n1255 P.n1254 0.9005
R261 P.n973 P.n972 0.9005
R262 P.n846 P.n845 0.9005
R263 P.n162 P.n161 0.9005
R264 P.n257 P.n256 0.9005
R265 P.n597 P.n596 0.9005
R266 P.n477 P.n476 0.9005
R267 P.n2597 P.n2596 0.9005
R268 P.n2681 P.n2680 0.9005
R269 P.n3026 P.n3025 0.9005
R270 P.n3210 P.n3209 0.9005
R271 P.n3248 P.n3235 0.9005
R272 P.n3066 P.n3052 0.9005
R273 P.n188 P.n187 0.9005
R274 P.n872 P.n871 0.9005
R275 P.n1204 P.n1203 0.9005
R276 P.n2109 P.n2108 0.9005
R277 P.n1519 P.n1518 0.9005
R278 P.n1629 P.n1628 0.9005
R279 P.n2707 P.n2706 0.9005
R280 P.n2911 P.n2910 0.9005
R281 P.n2345 P.n2344 0.9005
R282 P.n2624 P.n2623 0.9005
R283 P.n2434 P.n2433 0.9005
R284 P.n3394 P.n3393 0.9005
R285 P.n3690 P.n3681 0.9005
R286 P.n1957 P.n1956 0.9005
R287 P.n1828 P.n1827 0.9005
R288 P.n1281 P.n1280 0.9005
R289 P.n1000 P.n999 0.9005
R290 P.n284 P.n283 0.9005
R291 P.n624 P.n623 0.9005
R292 P.n503 P.n502 0.9005
R293 P.n724 P.n723 0.143661
R294 P.n2018 P.n2017 0.135964
R295 P.n2019 P.n2018 0.135964
R296 P.n2020 P.n2019 0.135964
R297 P.n2021 P.n2020 0.135964
R298 P.n2022 P.n2021 0.135964
R299 P.n2023 P.n2022 0.135964
R300 P.n2024 P.n2023 0.135964
R301 P.n2025 P.n2024 0.135964
R302 P.n2026 P.n2025 0.135964
R303 P.n2027 P.n2026 0.135964
R304 P.n3107 P.n3106 0.135964
R305 P.n3108 P.n3107 0.135964
R306 P.n3109 P.n3108 0.135964
R307 P.n3110 P.n3109 0.135964
R308 P.n3111 P.n3110 0.135964
R309 P.n3112 P.n3111 0.135964
R310 P.n3113 P.n3112 0.135964
R311 P.n3114 P.n3113 0.135964
R312 P.n3115 P.n3114 0.135964
R313 P.n3116 P.n3115 0.135964
R314 P.n2783 P.n2782 0.135964
R315 P.n2784 P.n2783 0.135964
R316 P.n2785 P.n2784 0.135964
R317 P.n2786 P.n2785 0.135964
R318 P.n2787 P.n2786 0.135964
R319 P.n2788 P.n2787 0.135964
R320 P.n2789 P.n2788 0.135964
R321 P.n2790 P.n2789 0.135964
R322 P.n2791 P.n2790 0.135964
R323 P.n2792 P.n2791 0.135964
R324 P.n2512 P.n2511 0.135964
R325 P.n2513 P.n2512 0.135964
R326 P.n2514 P.n2513 0.135964
R327 P.n2515 P.n2514 0.135964
R328 P.n2516 P.n2515 0.135964
R329 P.n2517 P.n2516 0.135964
R330 P.n2518 P.n2517 0.135964
R331 P.n2519 P.n2518 0.135964
R332 P.n2520 P.n2519 0.135964
R333 P.n2521 P.n2520 0.135964
R334 P.n2193 P.n2192 0.135964
R335 P.n2194 P.n2193 0.135964
R336 P.n2195 P.n2194 0.135964
R337 P.n2196 P.n2195 0.135964
R338 P.n2197 P.n2196 0.135964
R339 P.n2198 P.n2197 0.135964
R340 P.n2199 P.n2198 0.135964
R341 P.n2200 P.n2199 0.135964
R342 P.n2201 P.n2200 0.135964
R343 P.n2202 P.n2201 0.135964
R344 P.n1 P.n0 0.135964
R345 P.n2 P.n1 0.135964
R346 P.n3 P.n2 0.135964
R347 P.n4 P.n3 0.135964
R348 P.n5 P.n4 0.135964
R349 P.n6 P.n5 0.135964
R350 P.n7 P.n6 0.135964
R351 P.n8 P.n7 0.135964
R352 P.n9 P.n8 0.135964
R353 P.n10 P.n9 0.135964
R354 P.n12 P.n11 0.135964
R355 P.n13 P.n12 0.135964
R356 P.n14 P.n13 0.135964
R357 P.n15 P.n14 0.135964
R358 P.n16 P.n15 0.135964
R359 P.n17 P.n16 0.135964
R360 P.n18 P.n17 0.135964
R361 P.n19 P.n18 0.135964
R362 P.n20 P.n19 0.135964
R363 P.n21 P.n20 0.135964
R364 P.n23 P.n22 0.135964
R365 P.n24 P.n23 0.135964
R366 P.n25 P.n24 0.135964
R367 P.n26 P.n25 0.135964
R368 P.n27 P.n26 0.135964
R369 P.n28 P.n27 0.135964
R370 P.n29 P.n28 0.135964
R371 P.n30 P.n29 0.135964
R372 P.n31 P.n30 0.135964
R373 P.n32 P.n31 0.135964
R374 P.n34 P.n33 0.135964
R375 P.n35 P.n34 0.135964
R376 P.n36 P.n35 0.135964
R377 P.n37 P.n36 0.135964
R378 P.n38 P.n37 0.135964
R379 P.n39 P.n38 0.135964
R380 P.n40 P.n39 0.135964
R381 P.n41 P.n40 0.135964
R382 P.n42 P.n41 0.135964
R383 P.n43 P.n42 0.135964
R384 P.n45 P.n44 0.135964
R385 P.n46 P.n45 0.135964
R386 P.n47 P.n46 0.135964
R387 P.n48 P.n47 0.135964
R388 P.n49 P.n48 0.135964
R389 P.n50 P.n49 0.135964
R390 P.n51 P.n50 0.135964
R391 P.n52 P.n51 0.135964
R392 P.n53 P.n52 0.135964
R393 P.n54 P.n53 0.135964
R394 P.n63 P.n62 0.135964
R395 P.n64 P.n63 0.135964
R396 P.n65 P.n64 0.135964
R397 P.n66 P.n65 0.135964
R398 P.n67 P.n66 0.135964
R399 P.n68 P.n67 0.135964
R400 P.n69 P.n68 0.135964
R401 P.n70 P.n69 0.135964
R402 P.n71 P.n70 0.135964
R403 P.n72 P.n71 0.135964
R404 P.n3419 P.n3418 0.135597
R405 P.n1053 P.n1052 0.134522
R406 P.n1359 P.n1358 0.131145
R407 P.n1689 P.n1688 0.130758
R408 P.n3544 P.n3543 0.128242
R409 P.n3481 P.n3480 0.124113
R410 P.n400 P.n399 0.106366
R411 P.n3284 P.n3283 0.0959839
R412 P P.n2016 0.0776398
R413 P P.n3708 0.0578978
R414 P.n222 P.n221 0.0558778
R415 P.n938 P.n937 0.0523449
R416 P.n562 P.n561 0.0512851
R417 P.n2283 P.n2282 0.0492919
R418 P.n2849 P.n2848 0.0445406
R419 P.n1895 P.n1894 0.044131
R420 P.n2562 P.n2561 0.0432614
R421 P.n1142 P.n1141 0.0410397
R422 P.n3620 P.n3619 0.0407944
R423 P.n1457 P.n1456 0.03892
R424 P.n2991 P.n2990 0.0388756
R425 P.n3117 P.n3116 0.0376056
R426 P.n3468 P.n2521 0.0354299
R427 P.n3707 P.n2027 0.0340142
R428 P.n3401 P.n2792 0.0340142
R429 P.n3543 P.n2202 0.0340142
R430 P.n1689 P.n10 0.0340142
R431 P.n1365 P.n21 0.0340142
R432 P.n1060 P.n32 0.0340142
R433 P.n741 P.n43 0.0340142
R434 P.n417 P.n54 0.0340142
R435 P.n104 P.n72 0.0340142
R436 P.n2853 P.n2852 0.0140228
R437 P.n2843 P.n2842 0.0140228
R438 P.n2287 P.n2286 0.0140228
R439 P.n2277 P.n2276 0.0140228
R440 P.n3624 P.n3623 0.0140228
R441 P.n3614 P.n3613 0.0140228
R442 P.n2566 P.n2565 0.0140228
R443 P.n2556 P.n2555 0.0140228
R444 P.n2995 P.n2994 0.0140228
R445 P.n2985 P.n2984 0.0140228
R446 P.n1899 P.n1898 0.0135716
R447 P.n1889 P.n1888 0.0135716
R448 P.n1461 P.n1460 0.0135716
R449 P.n1451 P.n1450 0.0135716
R450 P.n1146 P.n1145 0.0135716
R451 P.n1136 P.n1135 0.0135716
R452 P.n942 P.n941 0.0135716
R453 P.n932 P.n931 0.0135716
R454 P.n226 P.n225 0.0135716
R455 P.n216 P.n215 0.0135716
R456 P.n566 P.n565 0.0135716
R457 P.n556 P.n555 0.0135716
R458 P.n2847 P.n2846 0.012835
R459 P.n2281 P.n2280 0.012835
R460 P.n3618 P.n3617 0.012835
R461 P.n2560 P.n2559 0.012835
R462 P.n2989 P.n2988 0.012835
R463 P.n1893 P.n1892 0.0124235
R464 P.n1455 P.n1454 0.0124235
R465 P.n1140 P.n1139 0.0124235
R466 P.n936 P.n935 0.0124235
R467 P.n220 P.n219 0.0124235
R468 P.n560 P.n559 0.0124235
R469 P.n2878 P.n2877 0.00790102
R470 P.n3362 P.n3361 0.00790102
R471 P.n2312 P.n2311 0.00790102
R472 P.n2402 P.n2401 0.00790102
R473 P.n3649 P.n3648 0.00790102
R474 P.n2077 P.n2076 0.00790102
R475 P.n2591 P.n2590 0.00790102
R476 P.n2675 P.n2674 0.00790102
R477 P.n3020 P.n3019 0.00790102
R478 P.n3204 P.n3203 0.00790102
R479 P.n1924 P.n1923 0.00765407
R480 P.n1796 P.n1795 0.00765407
R481 P.n1486 P.n1485 0.00765407
R482 P.n1597 P.n1596 0.00765407
R483 P.n1171 P.n1170 0.00765407
R484 P.n1249 P.n1248 0.00765407
R485 P.n967 P.n966 0.00765407
R486 P.n840 P.n839 0.00765407
R487 P.n251 P.n250 0.00765407
R488 P.n156 P.n155 0.00765407
R489 P.n591 P.n590 0.00765407
R490 P.n471 P.n470 0.00765407
R491 P.n2894 P.n2893 0.00717005
R492 P.n3378 P.n3377 0.00717005
R493 P.n2328 P.n2327 0.00717005
R494 P.n2418 P.n2417 0.00717005
R495 P.n3665 P.n3664 0.00717005
R496 P.n2093 P.n2092 0.00717005
R497 P.n2607 P.n2606 0.00717005
R498 P.n2691 P.n2690 0.00717005
R499 P.n3036 P.n3035 0.00717005
R500 P.n3220 P.n3219 0.00717005
R501 P.n1940 P.n1939 0.0069475
R502 P.n1812 P.n1811 0.0069475
R503 P.n1502 P.n1501 0.0069475
R504 P.n1613 P.n1612 0.0069475
R505 P.n1187 P.n1186 0.0069475
R506 P.n1265 P.n1264 0.0069475
R507 P.n983 P.n982 0.0069475
R508 P.n856 P.n855 0.0069475
R509 P.n267 P.n266 0.0069475
R510 P.n172 P.n171 0.0069475
R511 P.n607 P.n606 0.0069475
R512 P.n487 P.n486 0.0069475
R513 P.n2861 P.n2860 0.0067132
R514 P.n3346 P.n3345 0.0067132
R515 P.n2295 P.n2294 0.0067132
R516 P.n2386 P.n2385 0.0067132
R517 P.n3632 P.n3631 0.0067132
R518 P.n2061 P.n2060 0.0067132
R519 P.n2574 P.n2573 0.0067132
R520 P.n2659 P.n2658 0.0067132
R521 P.n3003 P.n3002 0.0067132
R522 P.n3188 P.n3187 0.0067132
R523 P.n1907 P.n1906 0.00650589
R524 P.n1780 P.n1779 0.00650589
R525 P.n1469 P.n1468 0.00650589
R526 P.n1581 P.n1580 0.00650589
R527 P.n1154 P.n1153 0.00650589
R528 P.n1233 P.n1232 0.00650589
R529 P.n950 P.n949 0.00650589
R530 P.n824 P.n823 0.00650589
R531 P.n234 P.n233 0.00650589
R532 P.n140 P.n139 0.00650589
R533 P.n574 P.n573 0.00650589
R534 P.n455 P.n454 0.00650589
R535 P.n3283 P.n3282 0.0065
R536 P.n3075 P.n3074 0.00616497
R537 P.n3257 P.n3256 0.00616497
R538 P.n2829 P.n2828 0.00598223
R539 P.n3331 P.n3330 0.00598223
R540 P.n2263 P.n2262 0.00598223
R541 P.n2371 P.n2370 0.00598223
R542 P.n3600 P.n3599 0.00598223
R543 P.n2046 P.n2045 0.00598223
R544 P.n2542 P.n2541 0.00598223
R545 P.n2644 P.n2643 0.00598223
R546 P.n2971 P.n2970 0.00598223
R547 P.n3173 P.n3172 0.00598223
R548 P.n1875 P.n1874 0.00579931
R549 P.n1765 P.n1764 0.00579931
R550 P.n1437 P.n1436 0.00579931
R551 P.n1566 P.n1565 0.00579931
R552 P.n1122 P.n1121 0.00579931
R553 P.n1218 P.n1217 0.00579931
R554 P.n918 P.n917 0.00579931
R555 P.n809 P.n808 0.00579931
R556 P.n202 P.n201 0.00579931
R557 P.n125 P.n124 0.00579931
R558 P.n542 P.n541 0.00579931
R559 P.n440 P.n439 0.00579931
R560 P.n2806 P.n2805 0.00497716
R561 P.n2794 P.n2793 0.00497716
R562 P.n3522 P.n3521 0.00497716
R563 P.n2437 P.n2436 0.00497716
R564 P.n2172 P.n2171 0.00497716
R565 P.n2165 P.n2164 0.00497716
R566 P.n3455 P.n3454 0.00497716
R567 P.n2717 P.n2716 0.00497716
R568 P.n2949 P.n2948 0.00497716
R569 P.n3150 P.n3149 0.00497716
R570 P.n2856 P.n2855 0.0036066
R571 P.n2846 P.n2845 0.0036066
R572 P.n2290 P.n2289 0.0036066
R573 P.n2280 P.n2279 0.0036066
R574 P.n3627 P.n3626 0.0036066
R575 P.n3617 P.n3616 0.0036066
R576 P.n2569 P.n2568 0.0036066
R577 P.n2559 P.n2558 0.0036066
R578 P.n2998 P.n2997 0.0036066
R579 P.n2988 P.n2987 0.0036066
R580 P.n2862 P.n2861 0.00351523
R581 P.n3347 P.n3346 0.00351523
R582 P.n2296 P.n2295 0.00351523
R583 P.n2387 P.n2386 0.00351523
R584 P.n3633 P.n3632 0.00351523
R585 P.n2062 P.n2061 0.00351523
R586 P.n2575 P.n2574 0.00351523
R587 P.n2660 P.n2659 0.00351523
R588 P.n3004 P.n3003 0.00351523
R589 P.n3189 P.n3188 0.00351523
R590 P.n1902 P.n1901 0.00350294
R591 P.n1892 P.n1891 0.00350294
R592 P.n1464 P.n1463 0.00350294
R593 P.n1454 P.n1453 0.00350294
R594 P.n1149 P.n1148 0.00350294
R595 P.n1139 P.n1138 0.00350294
R596 P.n945 P.n944 0.00350294
R597 P.n935 P.n934 0.00350294
R598 P.n229 P.n228 0.00350294
R599 P.n219 P.n218 0.00350294
R600 P.n569 P.n568 0.00350294
R601 P.n559 P.n558 0.00350294
R602 P.n1066 P.n1065 0.00346774
R603 P.n3312 P.n3311 0.00346774
R604 P.n1908 P.n1907 0.00341462
R605 P.n1781 P.n1780 0.00341462
R606 P.n1470 P.n1469 0.00341462
R607 P.n1582 P.n1581 0.00341462
R608 P.n1155 P.n1154 0.00341462
R609 P.n1234 P.n1233 0.00341462
R610 P.n951 P.n950 0.00341462
R611 P.n825 P.n824 0.00341462
R612 P.n235 P.n234 0.00341462
R613 P.n141 P.n140 0.00341462
R614 P.n575 P.n574 0.00341462
R615 P.n456 P.n455 0.00341462
R616 P.n2831 P.n2830 0.00324112
R617 P.n3333 P.n3332 0.00324112
R618 P.n2265 P.n2264 0.00324112
R619 P.n2373 P.n2372 0.00324112
R620 P.n3602 P.n3601 0.00324112
R621 P.n2048 P.n2047 0.00324112
R622 P.n2544 P.n2543 0.00324112
R623 P.n2646 P.n2645 0.00324112
R624 P.n2973 P.n2972 0.00324112
R625 P.n3175 P.n3174 0.00324112
R626 P.n1378 P.n1377 0.00323118
R627 P.n3589 P.n3588 0.00323118
R628 P.n1877 P.n1876 0.00314966
R629 P.n1767 P.n1766 0.00314966
R630 P.n1439 P.n1438 0.00314966
R631 P.n1568 P.n1567 0.00314966
R632 P.n1124 P.n1123 0.00314966
R633 P.n1220 P.n1219 0.00314966
R634 P.n920 P.n919 0.00314966
R635 P.n811 P.n810 0.00314966
R636 P.n204 P.n203 0.00314966
R637 P.n127 P.n126 0.00314966
R638 P.n544 P.n543 0.00314966
R639 P.n442 P.n441 0.00314966
R640 P.n1708 P.n1707 0.00310215
R641 P.n3415 P.n3414 0.00310152
R642 P.n2132 P.n2123 0.00310152
R643 P.n2121 P.n2113 0.00310152
R644 P.n3451 P.n3450 0.00303763
R645 P.n1969 P.n1968 0.0030314
R646 P.n1839 P.n1838 0.0030314
R647 P.n1419 P.n1418 0.0030314
R648 P.n1640 P.n1639 0.0030314
R649 P.n1292 P.n1291 0.0030314
R650 P.n1012 P.n1011 0.0030314
R651 P.n798 P.n797 0.0030314
R652 P.n366 P.n365 0.0030314
R653 P.n693 P.n692 0.0030314
R654 P.n743 P.n742 0.00297312
R655 P.n2808 P.n2807 0.00296701
R656 P.n2796 P.n2795 0.00296701
R657 P.n3524 P.n3523 0.00296701
R658 P.n2439 P.n2438 0.00296701
R659 P.n2174 P.n2173 0.00296701
R660 P.n2167 P.n2166 0.00296701
R661 P.n3457 P.n3456 0.00296701
R662 P.n2719 P.n2718 0.00296701
R663 P.n2951 P.n2950 0.00296701
R664 P.n3152 P.n3151 0.00296701
R665 P.n1982 P.n1981 0.00288469
R666 P.n1853 P.n1852 0.00288469
R667 P.n1535 P.n1534 0.00288469
R668 P.n1654 P.n1653 0.00288469
R669 P.n1319 P.n1318 0.00288469
R670 P.n1306 P.n1305 0.00288469
R671 P.n1026 P.n1025 0.00288469
R672 P.n888 P.n887 0.00288469
R673 P.n96 P.n95 0.00288469
R674 P.n88 P.n87 0.00288469
R675 P.n421 P.n420 0.00288469
R676 P.n57 P.n56 0.00288469
R677 P.n3514 P.n3513 0.00284409
R678 P.n3304 P.n3302 0.00282741
R679 P.n2919 P.n2917 0.00282741
R680 P.n2451 P.n2450 0.00282741
R681 P.n2457 P.n2455 0.00282741
R682 P.n3574 P.n3567 0.00282741
R683 P.n2191 P.n2184 0.00282741
R684 P.n2732 P.n2731 0.00282741
R685 P.n2743 P.n2742 0.00282741
R686 P.n3400 P.n3399 0.00282258
R687 P.n1744 P.n1742 0.00276644
R688 P.n1737 P.n1736 0.00276644
R689 P.n1392 P.n1391 0.00276644
R690 P.n1399 P.n1398 0.00276644
R691 P.n1088 P.n1087 0.00276644
R692 P.n1084 P.n1083 0.00276644
R693 P.n780 P.n779 0.00276644
R694 P.n773 P.n772 0.00276644
R695 P.n308 P.n307 0.00276644
R696 P.n301 P.n300 0.00276644
R697 P.n635 P.n633 0.00276644
R698 P.n522 P.n520 0.00276644
R699 P.n2767 P.n2766 0.00273604
R700 P.n2781 P.n2780 0.00273604
R701 P.n2232 P.n2231 0.00273604
R702 P.n2245 P.n2244 0.00273604
R703 P.n2160 P.n2152 0.00273604
R704 P.n2146 P.n2138 0.00273604
R705 P.n2497 P.n2489 0.00273604
R706 P.n2510 P.n2502 0.00273604
R707 P.n2850 P.n2849 0.00269289
R708 P.n2867 P.n2866 0.00269289
R709 P.n2284 P.n2283 0.00269289
R710 P.n2301 P.n2300 0.00269289
R711 P.n3621 P.n3620 0.00269289
R712 P.n3638 P.n3637 0.00269289
R713 P.n2563 P.n2562 0.00269289
R714 P.n2580 P.n2579 0.00269289
R715 P.n2992 P.n2991 0.00269289
R716 P.n3009 P.n3008 0.00269289
R717 P.n2001 P.n2000 0.00267811
R718 P.n1850 P.n1849 0.00267811
R719 P.n1532 P.n1531 0.00267811
R720 P.n1651 P.n1650 0.00267811
R721 P.n1338 P.n1337 0.00267811
R722 P.n1303 P.n1302 0.00267811
R723 P.n1023 P.n1022 0.00267811
R724 P.n885 P.n884 0.00267811
R725 P.n383 P.n382 0.00267811
R726 P.n338 P.n337 0.00267811
R727 P.n663 P.n662 0.00267811
R728 P.n1896 P.n1895 0.00261973
R729 P.n1913 P.n1912 0.00261973
R730 P.n1458 P.n1457 0.00261973
R731 P.n1475 P.n1474 0.00261973