* NGSPICE file created from VCO_DFF_C_flat.ext - technology: gf180mcuC

.subckt pex_VCO_DFF_C VDD VSS VCTRL VCTRL2 OUT OUTB 
X0 VDD VCO_C_0.INV_2_3.IN.t30 VCO_C_0.INV_2_2.IN.t6 VDD.t29 pfet_03v3 ad=0.13p pd=1.02u as=0.22p ps=1.88u w=0.5u l=0.84u
X1 VDD VCTRL.t0 VCO_C_0.INV_2_3.IN.t26 VDD.t199 pfet_03v3 ad=0.13p pd=1.02u as=0.13p ps=1.02u w=0.5u l=0.84u
X2 VDD VCO_C_0.INV_2_2.IN.t31 VCO_C_0.INV_2_3.IN.t17 VDD.t23 pfet_03v3 ad=0.13p pd=1.02u as=0.13p ps=1.02u w=0.5u l=0.84u
X3 VDD VCO_C_0.INV_2_2.IN.t32 VCO_C_0.INV_2_3.IN.t16 VDD.t2 pfet_03v3 ad=0.13p pd=1.02u as=0.13p ps=1.02u w=0.5u l=0.84u
X4 VSS.t361 VSS.t359 VSS.t361 VSS.t360 nfet_03v3 ad=0 pd=0 as=0.22p ps=1.88u w=0.5u l=0.84u
X5 VCO_C_0.OUTB VCO_C_0.INV_2_1.IN.t12 VSS.t67 VSS.t66 nfet_03v3 ad=0.13p pd=1.02u as=0.22p ps=1.88u w=0.5u l=0.5u
X6 VCO_C_0.INV_2_5.OUT VCO_C_0.INV_2_5.IN.t31 VDD.t338 VDD.t142 pfet_03v3 ad=0.13p pd=1.02u as=0.13p ps=1.02u w=0.5u l=0.5u
X7 DFF_3_mag_0.INV_2_1.IN a_17597_1404.t6 DFF_3_mag_0.INV_2_5.OUT.t19 VDD.t56 pfet_03v3 ad=0.218p pd=1.36u as=0.37p ps=2.56u w=0.84u l=0.5u
X8 VCO_C_0.INV_2_1.IN VCO_C_0.INV_2_3.IN.t31 VDD.t45 VDD.t43 pfet_03v3 ad=0.13p pd=1.02u as=0.13p ps=1.02u w=0.5u l=0.5u
X9 VSS.t358 VSS.t357 VSS.t358 VSS.t293 nfet_03v3 ad=0 pd=0 as=0.22p ps=1.88u w=0.5u l=0.84u
X10 VSS.t356 VSS.t354 VSS.t356 VSS.t355 nfet_03v3 ad=0.22p pd=1.88u as=0 ps=0 w=0.5u l=0.84u
X11 VDD VCO_C_0.INV_2_4.IN.t12 VCO_C_0.OUT.t7 VDD.t93 pfet_03v3 ad=0.13p pd=1.02u as=0.13p ps=1.02u w=0.5u l=0.5u
X12 VDD VCO_C_0.INV_2_5.IN.t32 VCO_C_0.INV_2_0.IN.t30 VDD.t136 pfet_03v3 ad=0.13p pd=1.02u as=0.22p ps=1.88u w=0.5u l=0.84u
X13 VDD DFF_3_mag_0.INV_2_5.IN.t20 DFF_3_mag_0.INV_2_5.OUT.t11 VDD.t169 pfet_03v3 ad=0.22p pd=1.88u as=0.13p ps=1.02u w=0.5u l=0.5u
X14 VCO_C_0.INV_2_1.IN VCO_C_0.INV_2_3.IN.t32 VDD.t44 VDD.t43 pfet_03v3 ad=0.13p pd=1.02u as=0.13p ps=1.02u w=0.5u l=0.5u
X15 VCO_C_0.INV_2_3.IN VCO_C_0.INV_2_2.IN.t33 VDD.t289 VDD.t0 pfet_03v3 ad=0.22p pd=1.88u as=0.13p ps=1.02u w=0.5u l=0.84u
X16 VSS.t353 VSS.t352 VSS.t353 VSS.t296 nfet_03v3 ad=0 pd=0 as=0.22p ps=1.88u w=0.5u l=0.84u
X17 VCO_C_0.INV_2_0.IN VCO_C_0.INV_2_5.IN.t33 VDD.t350 VDD.t66 pfet_03v3 ad=0.22p pd=1.88u as=0.13p ps=1.02u w=0.5u l=0.84u
X18 VDD VCO_C_0.INV_2_3.IN.t33 VCO_C_0.INV_2_2.IN.t7 VDD.t23 pfet_03v3 ad=0.13p pd=1.02u as=0.13p ps=1.02u w=0.5u l=0.84u
X19 VCO_C_0.INV_2_5.IN VCTRL.t1 VDD.t393 VDD.t325 pfet_03v3 ad=0.22p pd=1.88u as=0.13p ps=1.02u w=0.5u l=0.84u
X20 OUTB OUT.t12 VDD.t401 VDD.t119 pfet_03v3 ad=0.13p pd=1.02u as=0.22p ps=1.88u w=0.5u l=0.5u
X21 VCO_C_0.INV_2_3.IN VCO_C_0.INV_2_5.OUT.t12 a_10161_4198.t11 VSS.t77 nfet_03v3 ad=0.13p pd=1.02u as=0.13p ps=1.02u w=0.5u l=0.84u
X22 VCO_C_0.INV_2_0.IN VCO_C_0.INV_2_5.IN.t34 VDD.t351 VDD.t71 pfet_03v3 ad=0.22p pd=1.88u as=0.13p ps=1.02u w=0.5u l=0.84u
X23 VDD OUT.t13 DFF_3_mag_0.INV_2_4.OUT.t11 VDD.t156 pfet_03v3 ad=0.22p pd=1.88u as=0.13p ps=1.02u w=0.5u l=0.5u
X24 DFF_3_mag_0.INV_2_5.IN VCO_C_0.OUTB.t13 DFF_3_mag_0.INV_2_3.IN.t3 VSS.t217 nfet_03v3 ad=0.37p pd=2.56u as=0.37p ps=2.56u w=0.84u l=0.5u
X25 DFF_3_mag_0.INV_2_1.IN VCO_C_0.OUTB.t14 DFF_3_mag_0.INV_2_5.OUT.t2 VSS.t30 nfet_03v3 ad=0.37p pd=2.56u as=0.37p ps=2.56u w=0.84u l=0.5u
X26 DFF_3_mag_0.INV_2_4.OUT OUT.t14 VDD.t404 VDD.t161 pfet_03v3 ad=0.13p pd=1.02u as=0.13p ps=1.02u w=0.5u l=0.5u
X27 DFF_3_mag_0.INV_2_1.IN a_17597_2884.t6 OUTB.t0 VDD.t56 pfet_03v3 ad=0.218p pd=1.36u as=0.37p ps=2.56u w=0.84u l=0.5u
X28 VSS.t351 VSS.t349 VSS.t351 VSS.t350 nfet_03v3 ad=0.22p pd=1.88u as=0 ps=0 w=0.5u l=0.84u
X29 DFF_3_mag_0.INV_2_3.IN a_20434_3437.t6 DFF_3_mag_0.INV_2_5.IN.t17 VDD.t132 pfet_03v3 ad=0.218p pd=1.36u as=0.218p ps=1.36u w=0.84u l=0.5u
X30 DFF_3_mag_0.INV_2_5.OUT DFF_3_mag_0.INV_2_5.IN.t21 VSS.t92 VSS.t91 nfet_03v3 ad=0.13p pd=1.02u as=0.13p ps=1.02u w=0.5u l=0.5u
X31 OUTB OUT.t15 VDD.t405 VDD.t48 pfet_03v3 ad=0.13p pd=1.02u as=0.13p ps=1.02u w=0.5u l=0.5u
X32 VCO_C_0.INV_2_0.OUT VCO_C_0.INV_2_0.IN.t31 VDD.t296 VDD.t101 pfet_03v3 ad=0.13p pd=1.02u as=0.22p ps=1.88u w=0.5u l=0.5u
X33 VDD OUT.t16 DFF_3_mag_0.INV_2_4.OUT.t9 VDD.t163 pfet_03v3 ad=0.13p pd=1.02u as=0.13p ps=1.02u w=0.5u l=0.5u
X34 VSS.t348 VSS.t347 VSS.t348 VSS.t329 nfet_03v3 ad=0 pd=0 as=0.22p ps=1.88u w=0.5u l=0.84u
X35 DFF_3_mag_0.INV_2_3.IN a_20434_1083.t6 DFF_3_mag_0.INV_2_4.OUT.t3 VDD.t123 pfet_03v3 ad=0.218p pd=1.36u as=0.37p ps=2.56u w=0.84u l=0.5u
X36 VCO_C_0.INV_2_5.IN VCO_C_0.INV_2_0.IN.t32 VDD.t297 VDD.t66 pfet_03v3 ad=0.22p pd=1.88u as=0.13p ps=1.02u w=0.5u l=0.84u
X37 VSS VCTRL2.t3 a_10161_4198.t58 VSS.t7 nfet_03v3 ad=0.22p pd=1.88u as=0.13p ps=1.02u w=0.5u l=0.84u
X38 VCO_C_0.INV_2_3.IN VCO_C_0.INV_2_2.IN.t34 VDD.t288 VDD.t18 pfet_03v3 ad=0.13p pd=1.02u as=0.13p ps=1.02u w=0.5u l=0.84u
X39 VCO_C_0.INV_2_3.IN VCTRL.t2 VDD.t394 VDD.t199 pfet_03v3 ad=0.13p pd=1.02u as=0.13p ps=1.02u w=0.5u l=0.84u
X40 DFF_3_mag_0.INV_2_3.IN VCO_C_0.OUTB.t15 DFF_3_mag_0.INV_2_5.IN.t3 VSS.t27 nfet_03v3 ad=0.37p pd=2.56u as=0.218p ps=1.36u w=0.84u l=0.5u
X41 DFF_3_mag_0.INV_2_0.OUT VCO_C_0.OUTB.t16 VSS.t29 VSS.t28 nfet_03v3 ad=0.13p pd=1.02u as=0.22p ps=1.88u w=0.5u l=0.5u
X42 VCO_C_0.INV_2_5.OUT VCO_C_0.INV_2_5.IN.t35 VSS.t135 VSS.t129 nfet_03v3 ad=0.13p pd=1.02u as=0.22p ps=1.88u w=0.5u l=0.5u
X43 VDD.t251 VDD.t249 VDD.t251 VDD.t250 pfet_03v3 ad=0 pd=0 as=0.22p ps=1.88u w=0.5u l=0.84u
X44 VSS VCTRL2.t6 a_10161_4198.t32 VSS.t7 nfet_03v3 ad=0.22p pd=1.88u as=0.13p ps=1.02u w=0.5u l=0.84u
X45 VDD.t248 VDD.t247 VDD.t248 VDD.t190 pfet_03v3 ad=0 pd=0 as=0.22p ps=1.88u w=0.5u l=0.84u
X46 VSS.t346 VSS.t345 VSS.t346 VSS.t322 nfet_03v3 ad=0.22p pd=1.88u as=0 ps=0 w=0.5u l=0.84u
X47 VSS VCTRL2.t8 a_1424_1033.t58 VSS.t172 nfet_03v3 ad=0.22p pd=1.88u as=0.13p ps=1.02u w=0.5u l=0.84u
X48 VSS VCTRL2.t10 a_10161_4198.t34 VSS.t12 nfet_03v3 ad=0.13p pd=1.02u as=0.13p ps=1.02u w=0.5u l=0.84u
X49 VDD.t246 VDD.t244 VDD.t246 VDD.t245 pfet_03v3 ad=0 pd=0 as=0.22p ps=1.88u w=0.5u l=0.84u
X50 VDD OUT.t17 OUTB.t12 VDD.t113 pfet_03v3 ad=0.22p pd=1.88u as=0.13p ps=1.02u w=0.5u l=0.5u
X51 VCO_C_0.INV_2_2.IN VCO_C_0.INV_2_3.IN.t34 VDD.t40 VDD.t18 pfet_03v3 ad=0.13p pd=1.02u as=0.13p ps=1.02u w=0.5u l=0.84u
X52 VSS.t344 VSS.t342 VSS.t344 VSS.t343 nfet_03v3 ad=0 pd=0 as=0.22p ps=1.88u w=0.5u l=0.84u
X53 DFF_3_mag_0.INV_2_5.IN DFF_3_mag_0.INV_2_1.IN.t16 VDD.t322 VDD.t320 pfet_03v3 ad=0.13p pd=1.02u as=0.13p ps=1.02u w=0.5u l=0.5u
X54 DFF_3_mag_0.INV_2_1.IN VCO_C_0.OUTB.t17 DFF_3_mag_0.INV_2_5.OUT.t1 VSS.t30 nfet_03v3 ad=0.37p pd=2.56u as=0.37p ps=2.56u w=0.84u l=0.5u
X55 VDD VCO_C_0.INV_2_3.IN.t35 VCO_C_0.INV_2_1.IN.t5 VDD.t26 pfet_03v3 ad=0.22p pd=1.88u as=0.13p ps=1.02u w=0.5u l=0.5u
X56 VDD.t243 VDD.t242 VDD.t243 VDD.t205 pfet_03v3 ad=0.22p pd=1.88u as=0 ps=0 w=0.5u l=0.84u
X57 VDD.t241 VDD.t240 VDD.t241 VDD.t202 pfet_03v3 ad=0 pd=0 as=0.22p ps=1.88u w=0.5u l=0.84u
X58 VCO_C_0.INV_2_5.IN VCO_C_0.INV_2_0.IN.t33 VDD.t298 VDD.t145 pfet_03v3 ad=0.13p pd=1.02u as=0.13p ps=1.02u w=0.5u l=0.84u
X59 VDD OUT.t18 OUTB.t11 VDD.t50 pfet_03v3 ad=0.13p pd=1.02u as=0.13p ps=1.02u w=0.5u l=0.5u
X60 VDD VCO_C_0.OUTB.t18 a_20434_3437.t3 VDD.t53 pfet_03v3 ad=0.218p pd=1.36u as=0.218p ps=1.36u w=0.84u l=0.5u
X61 VCO_C_0.OUTB VCO_C_0.INV_2_1.IN.t13 VDD.t80 VDD.t79 pfet_03v3 ad=0.13p pd=1.02u as=0.13p ps=1.02u w=0.5u l=0.5u
X62 VSS.t341 VSS.t340 VSS.t341 VSS.t264 nfet_03v3 ad=0 pd=0 as=0.22p ps=1.88u w=0.5u l=0.84u
X63 DFF_3_mag_0.INV_2_4.OUT a_20434_1083.t7 DFF_3_mag_0.INV_2_3.IN.t9 VDD.t127 pfet_03v3 ad=0.37p pd=2.56u as=0.218p ps=1.36u w=0.84u l=0.5u
X64 VCO_C_0.INV_2_3.IN VCO_C_0.INV_2_2.IN.t35 VDD.t287 VDD.t16 pfet_03v3 ad=0.22p pd=1.88u as=0.13p ps=1.02u w=0.5u l=0.84u
X65 VSS VCTRL2.t14 a_1424_1033.t54 VSS.t172 nfet_03v3 ad=0.22p pd=1.88u as=0.13p ps=1.02u w=0.5u l=0.84u
X66 VDD.t239 VDD.t238 VDD.t239 VDD.t208 pfet_03v3 ad=0 pd=0 as=0.22p ps=1.88u w=0.5u l=0.84u
X67 VCO_C_0.INV_2_1.IN VCO_C_0.INV_2_3.IN.t36 VSS.t37 VSS.t36 nfet_03v3 ad=0.13p pd=1.02u as=0.13p ps=1.02u w=0.5u l=0.5u
X68 VSS VCO_C_0.OUTB.t20 a_17597_1404.t5 VSS.t31 nfet_03v3 ad=0.218p pd=1.36u as=0.37p ps=2.56u w=0.84u l=0.5u
X69 OUTB OUT.t19 VSS.t80 VSS.t79 nfet_03v3 ad=0.13p pd=1.02u as=0.22p ps=1.88u w=0.5u l=0.5u
X70 VCO_C_0.OUTB VCO_C_0.INV_2_1.IN.t14 VDD.t386 VDD.t385 pfet_03v3 ad=0.13p pd=1.02u as=0.22p ps=1.88u w=0.5u l=0.5u
X71 VCO_C_0.INV_2_0.IN VCO_C_0.INV_2_5.IN.t36 VDD.t352 VDD.t145 pfet_03v3 ad=0.13p pd=1.02u as=0.13p ps=1.02u w=0.5u l=0.84u
X72 VSS.t339 VSS.t338 VSS.t339 VSS.t264 nfet_03v3 ad=0 pd=0 as=0.22p ps=1.88u w=0.5u l=0.84u
X73 VDD DFF_3_mag_0.INV_2_1.IN.t17 DFF_3_mag_0.INV_2_5.IN.t11 VDD.t317 pfet_03v3 ad=0.22p pd=1.88u as=0.13p ps=1.02u w=0.5u l=0.5u
X74 VCO_C_0.INV_2_2.IN VCO_C_0.INV_2_3.IN.t37 VDD.t37 VDD.t16 pfet_03v3 ad=0.22p pd=1.88u as=0.13p ps=1.02u w=0.5u l=0.84u
X75 VSS VCTRL2.t15 a_10161_4198.t22 VSS.t142 nfet_03v3 ad=0.13p pd=1.02u as=0.13p ps=1.02u w=0.5u l=0.84u
X76 DFF_3_mag_0.INV_2_1.IN DFF_3_mag_0.INV_2_0.OUT.t12 OUTB.t5 VSS.t70 nfet_03v3 ad=0.37p pd=2.56u as=0.37p ps=2.56u w=0.84u l=0.5u
X77 DFF_3_mag_0.INV_2_1.IN VCO_C_0.OUTB.t21 DFF_3_mag_0.INV_2_5.OUT.t0 VSS.t34 nfet_03v3 ad=0.37p pd=2.56u as=0.218p ps=1.36u w=0.84u l=0.5u
X78 VCO_C_0.INV_2_0.OUT VCO_C_0.INV_2_0.IN.t34 VSS.t62 VSS.t61 nfet_03v3 ad=0.13p pd=1.02u as=0.13p ps=1.02u w=0.5u l=0.5u
X79 VSS.t337 VSS.t336 VSS.t337 VSS.t296 nfet_03v3 ad=0 pd=0 as=0.22p ps=1.88u w=0.5u l=0.84u
X80 VCO_C_0.INV_2_5.IN VCO_C_0.OUTB.t22 a_1424_1033.t8 VSS.t35 nfet_03v3 ad=0.22p pd=1.88u as=0.13p ps=1.02u w=0.5u l=0.84u
X81 VDD DFF_3_mag_0.INV_2_5.IN.t22 DFF_3_mag_0.INV_2_5.OUT.t13 VDD.t84 pfet_03v3 ad=0.13p pd=1.02u as=0.13p ps=1.02u w=0.5u l=0.5u
X82 VCO_C_0.INV_2_3.IN VCTRL.t3 VDD.t395 VDD.t330 pfet_03v3 ad=0.22p pd=1.88u as=0.13p ps=1.02u w=0.5u l=0.84u
X83 VSS.t335 VSS.t333 VSS.t335 VSS.t334 nfet_03v3 ad=0 pd=0 as=0.22p ps=1.88u w=0.5u l=0.84u
X84 OUT DFF_3_mag_0.INV_2_3.IN.t16 VDD.t414 VDD.t119 pfet_03v3 ad=0.13p pd=1.02u as=0.22p ps=1.88u w=0.5u l=0.5u
X85 VSS DFF_3_mag_0.INV_2_1.IN.t18 DFF_3_mag_0.INV_2_5.IN.t16 VSS.t93 nfet_03v3 ad=0.13p pd=1.02u as=0.13p ps=1.02u w=0.5u l=0.5u
X86 VDD VCO_C_0.OUTB.t23 DFF_3_mag_0.INV_2_0.OUT.t7 VDD.t180 pfet_03v3 ad=0.13p pd=1.02u as=0.13p ps=1.02u w=0.5u l=0.5u
X87 VSS VCTRL2.t17 a_10161_4198.t23 VSS.t142 nfet_03v3 ad=0.13p pd=1.02u as=0.13p ps=1.02u w=0.5u l=0.84u
X88 VDD VCO_C_0.INV_2_5.IN.t37 VCO_C_0.INV_2_0.IN.t26 VDD.t103 pfet_03v3 ad=0.13p pd=1.02u as=0.22p ps=1.88u w=0.5u l=0.84u
X89 VDD.t237 VDD.t235 VDD.t237 VDD.t236 pfet_03v3 ad=0 pd=0 as=0.22p ps=1.88u w=0.5u l=0.84u
X90 DFF_3_mag_0.INV_2_0.OUT VCO_C_0.OUTB.t24 VDD.t423 VDD.t58 pfet_03v3 ad=0.13p pd=1.02u as=0.22p ps=1.88u w=0.5u l=0.5u
X91 VCO_C_0.INV_2_0.OUT VCO_C_0.INV_2_0.IN.t35 VDD.t102 VDD.t101 pfet_03v3 ad=0.13p pd=1.02u as=0.22p ps=1.88u w=0.5u l=0.5u
X92 VSS OUT.t20 OUTB.t17 VSS.t81 nfet_03v3 ad=0.22p pd=1.88u as=0.13p ps=1.02u w=0.5u l=0.5u
X93 VCO_C_0.INV_2_4.IN VCO_C_0.INV_2_2.IN.t36 VDD.t282 VDD.t268 pfet_03v3 ad=0.13p pd=1.02u as=0.22p ps=1.88u w=0.5u l=0.5u
X94 VSS VCTRL2.t19 a_1424_1033.t51 VSS.t185 nfet_03v3 ad=0.13p pd=1.02u as=0.13p ps=1.02u w=0.5u l=0.84u
X95 VSS VCO_C_0.INV_2_2.IN.t37 VCO_C_0.INV_2_4.IN.t11 VSS.t114 nfet_03v3 ad=0.22p pd=1.88u as=0.13p ps=1.02u w=0.5u l=0.5u
X96 VDD VCO_C_0.INV_2_4.IN.t13 VCO_C_0.OUT.t6 VDD.t93 pfet_03v3 ad=0.13p pd=1.02u as=0.13p ps=1.02u w=0.5u l=0.5u
X97 VDD DFF_3_mag_0.INV_2_0.OUT.t14 a_17597_2884.t4 VDD.t78 pfet_03v3 ad=0.37p pd=2.56u as=0.218p ps=1.36u w=0.84u l=0.5u
X98 VDD VCO_C_0.INV_2_1.IN.t15 VCO_C_0.OUTB.t5 VDD.t61 pfet_03v3 ad=0.13p pd=1.02u as=0.13p ps=1.02u w=0.5u l=0.5u
X99 VSS OUT.t21 OUTB.t16 VSS.t84 nfet_03v3 ad=0.13p pd=1.02u as=0.13p ps=1.02u w=0.5u l=0.5u
X100 VCO_C_0.OUTB VCO_C_0.INV_2_1.IN.t16 VSS.t257 VSS.t256 nfet_03v3 ad=0.13p pd=1.02u as=0.13p ps=1.02u w=0.5u l=0.5u
X101 VDD VCO_C_0.INV_2_0.IN.t36 VCO_C_0.INV_2_5.IN.t13 VDD.t103 pfet_03v3 ad=0.13p pd=1.02u as=0.22p ps=1.88u w=0.5u l=0.84u
X102 VSS VCO_C_0.INV_2_2.IN.t38 VCO_C_0.INV_2_4.IN.t10 VSS.t111 nfet_03v3 ad=0.13p pd=1.02u as=0.13p ps=1.02u w=0.5u l=0.5u
X103 VDD VCO_C_0.INV_2_5.IN.t38 VCO_C_0.INV_2_5.OUT.t6 VDD.t355 pfet_03v3 ad=0.13p pd=1.02u as=0.13p ps=1.02u w=0.5u l=0.5u
X104 VDD.t234 VDD.t232 VDD.t234 VDD.t233 pfet_03v3 ad=0.22p pd=1.88u as=0 ps=0 w=0.5u l=0.84u
X105 VCO_C_0.INV_2_5.OUT VCO_C_0.INV_2_5.IN.t39 VDD.t359 VDD.t358 pfet_03v3 ad=0.13p pd=1.02u as=0.22p ps=1.88u w=0.5u l=0.5u
X106 VDD DFF_3_mag_0.INV_2_0.OUT.t15 a_20434_1083.t2 VDD.t127 pfet_03v3 ad=0.37p pd=2.56u as=0.218p ps=1.36u w=0.84u l=0.5u
X107 VDD VCO_C_0.INV_2_4.IN.t14 VCO_C_0.OUT.t5 VDD.t96 pfet_03v3 ad=0.22p pd=1.88u as=0.13p ps=1.02u w=0.5u l=0.5u
X108 VSS DFF_3_mag_0.INV_2_0.OUT.t16 a_17597_2884.t0 VSS.t40 nfet_03v3 ad=0.218p pd=1.36u as=0.37p ps=2.56u w=0.84u l=0.5u
X109 VDD DFF_3_mag_0.INV_2_3.IN.t17 OUT.t5 VDD.t113 pfet_03v3 ad=0.22p pd=1.88u as=0.13p ps=1.02u w=0.5u l=0.5u
X110 VCO_C_0.OUT VCO_C_0.INV_2_4.IN.t15 VDD.t155 VDD.t154 pfet_03v3 ad=0.13p pd=1.02u as=0.22p ps=1.88u w=0.5u l=0.5u
X111 VDD VCO_C_0.INV_2_5.IN.t40 VCO_C_0.INV_2_0.IN.t25 VDD.t68 pfet_03v3 ad=0.13p pd=1.02u as=0.13p ps=1.02u w=0.5u l=0.84u
X112 VSS DFF_3_mag_0.INV_2_0.OUT.t17 a_20434_1083.t0 VSS.t43 nfet_03v3 ad=0.218p pd=1.36u as=0.37p ps=2.56u w=0.84u l=0.5u
X113 VDD VCO_C_0.INV_2_3.IN.t38 VCO_C_0.INV_2_1.IN.t4 VDD.t5 pfet_03v3 ad=0.13p pd=1.02u as=0.13p ps=1.02u w=0.5u l=0.5u
X114 OUT DFF_3_mag_0.INV_2_3.IN.t18 VDD.t116 VDD.t48 pfet_03v3 ad=0.13p pd=1.02u as=0.13p ps=1.02u w=0.5u l=0.5u
X115 VSS VCTRL2.t22 a_1424_1033.t49 VSS.t153 nfet_03v3 ad=0.13p pd=1.02u as=0.13p ps=1.02u w=0.5u l=0.84u
X116 VCO_C_0.INV_2_0.IN VCO_C_0.OUT.t13 a_1424_1033.t18 VSS.t103 nfet_03v3 ad=0.13p pd=1.02u as=0.13p ps=1.02u w=0.5u l=0.84u
X117 VDD DFF_3_mag_0.INV_2_3.IN.t19 OUT.t7 VDD.t50 pfet_03v3 ad=0.13p pd=1.02u as=0.13p ps=1.02u w=0.5u l=0.5u
X118 VDD VCTRL.t4 VCO_C_0.INV_2_0.IN.t14 VDD.t245 pfet_03v3 ad=0.13p pd=1.02u as=0.22p ps=1.88u w=0.5u l=0.84u
X119 VCO_C_0.INV_2_3.IN VCO_C_0.INV_2_5.OUT.t14 a_10161_4198.t59 VSS.t48 nfet_03v3 ad=0.22p pd=1.88u as=0.13p ps=1.02u w=0.5u l=0.84u
X120 VSS VCO_C_0.INV_2_4.IN.t16 VCO_C_0.OUT.t11 VSS.t88 nfet_03v3 ad=0.13p pd=1.02u as=0.13p ps=1.02u w=0.5u l=0.5u
X121 VCO_C_0.INV_2_0.OUT VCO_C_0.INV_2_0.IN.t37 VDD.t106 VDD.t64 pfet_03v3 ad=0.13p pd=1.02u as=0.13p ps=1.02u w=0.5u l=0.5u
X122 DFF_3_mag_0.INV_2_3.IN a_20434_1083.t8 DFF_3_mag_0.INV_2_4.OUT.t17 VDD.t132 pfet_03v3 ad=0.218p pd=1.36u as=0.218p ps=1.36u w=0.84u l=0.5u
X123 VSS VCTRL2.t24 a_1424_1033.t48 VSS.t153 nfet_03v3 ad=0.13p pd=1.02u as=0.13p ps=1.02u w=0.5u l=0.84u
X124 DFF_3_mag_0.INV_2_5.IN a_20434_3437.t7 DFF_3_mag_0.INV_2_3.IN.t14 VDD.t53 pfet_03v3 ad=0.218p pd=1.36u as=0.218p ps=1.36u w=0.84u l=0.5u
X125 VSS DFF_3_mag_0.INV_2_5.IN.t23 DFF_3_mag_0.INV_2_5.OUT.t14 VSS.t93 nfet_03v3 ad=0.13p pd=1.02u as=0.13p ps=1.02u w=0.5u l=0.5u
X126 VCO_C_0.INV_2_0.IN VCO_C_0.OUT.t14 a_1424_1033.t17 VSS.t35 nfet_03v3 ad=0.22p pd=1.88u as=0.13p ps=1.02u w=0.5u l=0.84u
X127 VCO_C_0.INV_2_2.IN VCO_C_0.INV_2_3.IN.t39 VDD.t34 VDD.t8 pfet_03v3 ad=0.13p pd=1.02u as=0.13p ps=1.02u w=0.5u l=0.84u
X128 VDD.t231 VDD.t230 VDD.t231 VDD.t205 pfet_03v3 ad=0.22p pd=1.88u as=0 ps=0 w=0.5u l=0.84u
X129 VCO_C_0.INV_2_5.IN VCO_C_0.INV_2_0.IN.t38 VDD.t107 VDD.t71 pfet_03v3 ad=0.22p pd=1.88u as=0.13p ps=1.02u w=0.5u l=0.84u
X130 VDD VCTRL.t5 VCO_C_0.INV_2_0.IN.t13 VDD.t325 pfet_03v3 ad=0.13p pd=1.02u as=0.13p ps=1.02u w=0.5u l=0.84u
X131 VDD VCO_C_0.INV_2_2.IN.t39 VCO_C_0.INV_2_3.IN.t15 VDD.t10 pfet_03v3 ad=0.13p pd=1.02u as=0.22p ps=1.88u w=0.5u l=0.84u
X132 VSS.t332 VSS.t331 VSS.t332 VSS.t308 nfet_03v3 ad=0 pd=0 as=0.22p ps=1.88u w=0.5u l=0.84u
X133 VCO_C_0.INV_2_3.IN VCO_C_0.INV_2_5.OUT.t15 a_10161_4198.t37 VSS.t77 nfet_03v3 ad=0.13p pd=1.02u as=0.13p ps=1.02u w=0.5u l=0.84u
X134 DFF_3_mag_0.INV_2_0.OUT VCO_C_0.OUTB.t26 VSS.t371 VSS.t370 nfet_03v3 ad=0.13p pd=1.02u as=0.13p ps=1.02u w=0.5u l=0.5u
X135 VCO_C_0.INV_2_5.OUT VCO_C_0.INV_2_5.IN.t41 VSS.t74 VSS.t61 nfet_03v3 ad=0.13p pd=1.02u as=0.13p ps=1.02u w=0.5u l=0.5u
X136 DFF_3_mag_0.INV_2_1.IN a_17597_1404.t7 DFF_3_mag_0.INV_2_5.OUT.t18 VDD.t76 pfet_03v3 ad=0.218p pd=1.36u as=0.218p ps=1.36u w=0.84u l=0.5u
X137 VCO_C_0.INV_2_2.IN VCO_C_0.INV_2_0.OUT.t15 a_10161_4198.t51 VSS.t77 nfet_03v3 ad=0.13p pd=1.02u as=0.13p ps=1.02u w=0.5u l=0.84u
X138 VCO_C_0.INV_2_3.IN VCO_C_0.INV_2_2.IN.t40 VDD.t284 VDD.t8 pfet_03v3 ad=0.13p pd=1.02u as=0.13p ps=1.02u w=0.5u l=0.84u
X139 VSS VCTRL2.t26 a_10161_4198.t19 VSS.t12 nfet_03v3 ad=0.13p pd=1.02u as=0.13p ps=1.02u w=0.5u l=0.84u
X140 VDD VCO_C_0.INV_2_3.IN.t40 VCO_C_0.INV_2_2.IN.t13 VDD.t10 pfet_03v3 ad=0.13p pd=1.02u as=0.22p ps=1.88u w=0.5u l=0.84u
X141 DFF_3_mag_0.INV_2_5.OUT VCO_C_0.OUTB.t27 DFF_3_mag_0.INV_2_1.IN.t0 VSS.t31 nfet_03v3 ad=0.218p pd=1.36u as=0.37p ps=2.56u w=0.84u l=0.5u
X142 VCO_C_0.OUTB VCO_C_0.INV_2_1.IN.t17 VDD.t89 VDD.t79 pfet_03v3 ad=0.13p pd=1.02u as=0.13p ps=1.02u w=0.5u l=0.5u
X143 VCO_C_0.INV_2_2.IN VCO_C_0.INV_2_0.OUT.t16 a_10161_4198.t50 VSS.t48 nfet_03v3 ad=0.22p pd=1.88u as=0.13p ps=1.02u w=0.5u l=0.84u
X144 OUT DFF_3_mag_0.INV_2_3.IN.t20 VSS.t69 VSS.t68 nfet_03v3 ad=0.13p pd=1.02u as=0.13p ps=1.02u w=0.5u l=0.5u
X145 VSS.t330 VSS.t328 VSS.t330 VSS.t329 nfet_03v3 ad=0 pd=0 as=0.22p ps=1.88u w=0.5u l=0.84u
X146 VSS.t327 VSS.t326 VSS.t327 VSS.t78 nfet_03v3 ad=0 pd=0 as=0.22p ps=1.88u w=0.5u l=0.84u
X147 VDD DFF_3_mag_0.INV_2_1.IN.t19 DFF_3_mag_0.INV_2_5.IN.t10 VDD.t180 pfet_03v3 ad=0.13p pd=1.02u as=0.13p ps=1.02u w=0.5u l=0.5u
X148 VSS.t325 VSS.t324 VSS.t325 VSS.t267 nfet_03v3 ad=0.22p pd=1.88u as=0 ps=0 w=0.5u l=0.84u
X149 VSS.t323 VSS.t321 VSS.t323 VSS.t322 nfet_03v3 ad=0.22p pd=1.88u as=0 ps=0 w=0.5u l=0.84u
X150 DFF_3_mag_0.INV_2_1.IN a_17597_2884.t7 OUTB.t1 VDD.t76 pfet_03v3 ad=0.218p pd=1.36u as=0.218p ps=1.36u w=0.84u l=0.5u
X151 VSS VCTRL2.t29 a_10161_4198.t21 VSS.t12 nfet_03v3 ad=0.13p pd=1.02u as=0.13p ps=1.02u w=0.5u l=0.84u
X152 VDD VCO_C_0.INV_2_0.IN.t39 VCO_C_0.INV_2_5.IN.t15 VDD.t108 pfet_03v3 ad=0.13p pd=1.02u as=0.13p ps=1.02u w=0.5u l=0.84u
X153 VSS VCTRL2.t30 a_1424_1033.t45 VSS.t172 nfet_03v3 ad=0.22p pd=1.88u as=0.13p ps=1.02u w=0.5u l=0.84u
X154 VCO_C_0.INV_2_5.IN VCO_C_0.INV_2_0.IN.t40 VDD.t112 VDD.t111 pfet_03v3 ad=0.13p pd=1.02u as=0.13p ps=1.02u w=0.5u l=0.84u
X155 VSS VCO_C_0.INV_2_3.IN.t41 VCO_C_0.INV_2_1.IN.t10 VSS.t136 nfet_03v3 ad=0.13p pd=1.02u as=0.13p ps=1.02u w=0.5u l=0.5u
X156 VDD VCO_C_0.INV_2_2.IN.t41 VCO_C_0.INV_2_4.IN.t6 VDD.t259 pfet_03v3 ad=0.22p pd=1.88u as=0.13p ps=1.02u w=0.5u l=0.5u
X157 VCO_C_0.INV_2_0.IN VCTRL.t6 VDD.t400 VDD.t325 pfet_03v3 ad=0.13p pd=1.02u as=0.13p ps=1.02u w=0.5u l=0.84u
X158 VDD.t229 VDD.t227 VDD.t229 VDD.t228 pfet_03v3 ad=0 pd=0 as=0.22p ps=1.88u w=0.5u l=0.84u
X159 VCO_C_0.INV_2_5.IN VCO_C_0.OUTB.t31 a_1424_1033.t5 VSS.t103 nfet_03v3 ad=0.13p pd=1.02u as=0.13p ps=1.02u w=0.5u l=0.84u
X160 VDD VCTRL.t7 VCO_C_0.INV_2_2.IN.t14 VDD.t199 pfet_03v3 ad=0.13p pd=1.02u as=0.22p ps=1.88u w=0.5u l=0.84u
X161 VSS.t320 VSS.t319 VSS.t320 VSS.t264 nfet_03v3 ad=0 pd=0 as=0.22p ps=1.88u w=0.5u l=0.84u
X162 VDD VCO_C_0.INV_2_2.IN.t42 VCO_C_0.INV_2_4.IN.t5 VDD.t254 pfet_03v3 ad=0.13p pd=1.02u as=0.13p ps=1.02u w=0.5u l=0.5u
X163 VSS VCTRL2.t33 a_10161_4198.t15 VSS.t142 nfet_03v3 ad=0.13p pd=1.02u as=0.13p ps=1.02u w=0.5u l=0.84u
X164 VSS.t318 VSS.t317 VSS.t318 VSS.t296 nfet_03v3 ad=0 pd=0 as=0.22p ps=1.88u w=0.5u l=0.84u
X165 VSS VCO_C_0.INV_2_0.IN.t41 VCO_C_0.INV_2_0.OUT.t0 VSS.t49 nfet_03v3 ad=0.13p pd=1.02u as=0.13p ps=1.02u w=0.5u l=0.5u
X166 VDD VCO_C_0.INV_2_3.IN.t42 VCO_C_0.INV_2_2.IN.t1 VDD.t29 pfet_03v3 ad=0.13p pd=1.02u as=0.22p ps=1.88u w=0.5u l=0.84u
X167 VCO_C_0.INV_2_2.IN VCO_C_0.INV_2_0.OUT.t17 a_10161_4198.t49 VSS.t77 nfet_03v3 ad=0.13p pd=1.02u as=0.13p ps=1.02u w=0.5u l=0.84u
X168 DFF_3_mag_0.INV_2_5.IN DFF_3_mag_0.INV_2_1.IN.t20 VDD.t337 VDD.t58 pfet_03v3 ad=0.13p pd=1.02u as=0.22p ps=1.88u w=0.5u l=0.5u
X169 VDD DFF_3_mag_0.INV_2_5.IN.t24 DFF_3_mag_0.INV_2_5.OUT.t15 VDD.t169 pfet_03v3 ad=0.22p pd=1.88u as=0.13p ps=1.02u w=0.5u l=0.5u
X170 VSS VCTRL2.t34 a_10161_4198.t16 VSS.t142 nfet_03v3 ad=0.13p pd=1.02u as=0.13p ps=1.02u w=0.5u l=0.84u
X171 VSS DFF_3_mag_0.INV_2_1.IN.t21 DFF_3_mag_0.INV_2_5.IN.t15 VSS.t55 nfet_03v3 ad=0.22p pd=1.88u as=0.13p ps=1.02u w=0.5u l=0.5u
X172 VDD VCO_C_0.OUTB.t32 DFF_3_mag_0.INV_2_0.OUT.t5 VDD.t317 pfet_03v3 ad=0.22p pd=1.88u as=0.13p ps=1.02u w=0.5u l=0.5u
X173 VSS VCTRL2.t35 a_1424_1033.t43 VSS.t147 nfet_03v3 ad=0.13p pd=1.02u as=0.13p ps=1.02u w=0.5u l=0.84u
X174 VDD.t226 VDD.t224 VDD.t226 VDD.t225 pfet_03v3 ad=0 pd=0 as=0.22p ps=1.88u w=0.5u l=0.84u
X175 VSS VCTRL2.t36 a_10161_4198.t17 VSS.t150 nfet_03v3 ad=0.13p pd=1.02u as=0.13p ps=1.02u w=0.5u l=0.84u
X176 DFF_3_mag_0.INV_2_0.OUT VCO_C_0.OUTB.t33 VDD.t346 VDD.t320 pfet_03v3 ad=0.13p pd=1.02u as=0.13p ps=1.02u w=0.5u l=0.5u
X177 VSS.t316 VSS.t315 VSS.t316 VSS.t296 nfet_03v3 ad=0 pd=0 as=0.22p ps=1.88u w=0.5u l=0.84u
X178 VCO_C_0.INV_2_0.OUT VCO_C_0.INV_2_0.IN.t42 VDD.t65 VDD.t64 pfet_03v3 ad=0.13p pd=1.02u as=0.13p ps=1.02u w=0.5u l=0.5u
X179 VDD VCO_C_0.INV_2_2.IN.t43 VCO_C_0.INV_2_3.IN.t14 VDD.t29 pfet_03v3 ad=0.13p pd=1.02u as=0.22p ps=1.88u w=0.5u l=0.84u
X180 VSS.t314 VSS.t312 VSS.t314 VSS.t313 nfet_03v3 ad=0.22p pd=1.88u as=0 ps=0 w=0.5u l=0.84u
X181 DFF_3_mag_0.INV_2_4.OUT DFF_3_mag_0.INV_2_0.OUT.t21 DFF_3_mag_0.INV_2_3.IN.t6 VSS.t59 nfet_03v3 ad=0.37p pd=2.56u as=0.37p ps=2.56u w=0.84u l=0.5u
X182 VCO_C_0.INV_2_4.IN VCO_C_0.INV_2_2.IN.t44 VDD.t276 VDD.t262 pfet_03v3 ad=0.13p pd=1.02u as=0.13p ps=1.02u w=0.5u l=0.5u
X183 DFF_3_mag_0.INV_2_4.OUT OUT.t22 VSS.t87 VSS.t68 nfet_03v3 ad=0.13p pd=1.02u as=0.13p ps=1.02u w=0.5u l=0.5u
X184 VSS VCTRL2.t37 a_1424_1033.t42 VSS.t153 nfet_03v3 ad=0.13p pd=1.02u as=0.13p ps=1.02u w=0.5u l=0.84u
X185 VDD VCO_C_0.INV_2_1.IN.t18 VCO_C_0.OUTB.t3 VDD.t387 pfet_03v3 ad=0.22p pd=1.88u as=0.13p ps=1.02u w=0.5u l=0.5u
X186 VDD VCO_C_0.INV_2_4.IN.t17 VCO_C_0.OUT.t3 VDD.t96 pfet_03v3 ad=0.22p pd=1.88u as=0.13p ps=1.02u w=0.5u l=0.5u
X187 VSS VCTRL2.t38 a_1424_1033.t41 VSS.t147 nfet_03v3 ad=0.13p pd=1.02u as=0.13p ps=1.02u w=0.5u l=0.84u
X188 DFF_3_mag_0.INV_2_4.OUT OUT.t23 VDD.t151 VDD.t150 pfet_03v3 ad=0.13p pd=1.02u as=0.22p ps=1.88u w=0.5u l=0.5u
X189 VDD VCTRL.t8 VCO_C_0.INV_2_2.IN.t15 VDD.t330 pfet_03v3 ad=0.13p pd=1.02u as=0.13p ps=1.02u w=0.5u l=0.84u
X190 VCO_C_0.OUT VCO_C_0.INV_2_4.IN.t18 VDD.t301 VDD.t154 pfet_03v3 ad=0.13p pd=1.02u as=0.22p ps=1.88u w=0.5u l=0.5u
X191 VDD VCTRL.t9 VCO_C_0.INV_2_5.IN.t20 VDD.t245 pfet_03v3 ad=0.22p pd=1.88u as=0.22p ps=1.88u w=0.5u l=0.84u
X192 OUTB OUT.t24 VDD.t152 VDD.t119 pfet_03v3 ad=0.13p pd=1.02u as=0.22p ps=1.88u w=0.5u l=0.5u
X193 VDD VCO_C_0.INV_2_5.IN.t42 VCO_C_0.INV_2_0.IN.t24 VDD.t136 pfet_03v3 ad=0.13p pd=1.02u as=0.22p ps=1.88u w=0.5u l=0.84u
X194 VCO_C_0.INV_2_3.IN VCTRL.t10 VDD.t368 VDD.t199 pfet_03v3 ad=0.22p pd=1.88u as=0.22p ps=1.88u w=0.5u l=0.84u
X195 VDD VCO_C_0.INV_2_5.IN.t43 VCO_C_0.INV_2_5.OUT.t4 VDD.t139 pfet_03v3 ad=0.22p pd=1.88u as=0.13p ps=1.02u w=0.5u l=0.5u
X196 VDD.t223 VDD.t222 VDD.t223 VDD.t208 pfet_03v3 ad=0 pd=0 as=0.22p ps=1.88u w=0.5u l=0.84u
X197 VCO_C_0.INV_2_4.IN VCO_C_0.INV_2_2.IN.t45 VSS.t110 VSS.t109 nfet_03v3 ad=0.13p pd=1.02u as=0.22p ps=1.88u w=0.5u l=0.5u
X198 VSS VCTRL2.t39 a_1424_1033.t40 VSS.t153 nfet_03v3 ad=0.13p pd=1.02u as=0.13p ps=1.02u w=0.5u l=0.84u
X199 VCO_C_0.INV_2_5.OUT VCO_C_0.INV_2_5.IN.t44 VDD.t143 VDD.t142 pfet_03v3 ad=0.13p pd=1.02u as=0.13p ps=1.02u w=0.5u l=0.5u
X200 DFF_3_mag_0.INV_2_5.OUT a_17597_1404.t8 DFF_3_mag_0.INV_2_1.IN.t13 VDD.t77 pfet_03v3 ad=0.218p pd=1.36u as=0.218p ps=1.36u w=0.84u l=0.5u
X201 VDD VCO_C_0.INV_2_2.IN.t46 VCO_C_0.INV_2_3.IN.t13 VDD.t2 pfet_03v3 ad=0.13p pd=1.02u as=0.13p ps=1.02u w=0.5u l=0.84u
X202 VCO_C_0.OUT VCO_C_0.INV_2_4.IN.t19 VDD.t302 VDD.t294 pfet_03v3 ad=0.13p pd=1.02u as=0.13p ps=1.02u w=0.5u l=0.5u
X203 VDD VCO_C_0.INV_2_3.IN.t43 VCO_C_0.INV_2_1.IN.t3 VDD.t26 pfet_03v3 ad=0.22p pd=1.88u as=0.13p ps=1.02u w=0.5u l=0.5u
X204 VDD.t221 VDD.t219 VDD.t221 VDD.t220 pfet_03v3 ad=0 pd=0 as=0.22p ps=1.88u w=0.5u l=0.84u
X205 VDD.t218 VDD.t216 VDD.t218 VDD.t217 pfet_03v3 ad=0.22p pd=1.88u as=0 ps=0 w=0.5u l=0.84u
X206 VCO_C_0.INV_2_5.IN VCO_C_0.INV_2_0.IN.t43 VDD.t67 VDD.t66 pfet_03v3 ad=0.22p pd=1.88u as=0.13p ps=1.02u w=0.5u l=0.84u
X207 VCO_C_0.INV_2_5.IN VCO_C_0.OUTB.t35 a_1424_1033.t4 VSS.t35 nfet_03v3 ad=0.22p pd=1.88u as=0.13p ps=1.02u w=0.5u l=0.84u
X208 VCO_C_0.INV_2_0.IN VCO_C_0.OUT.t15 a_1424_1033.t16 VSS.t35 nfet_03v3 ad=0.22p pd=1.88u as=0.13p ps=1.02u w=0.5u l=0.84u
X209 VCO_C_0.INV_2_3.IN VCO_C_0.INV_2_2.IN.t47 VDD.t273 VDD.t0 pfet_03v3 ad=0.22p pd=1.88u as=0.13p ps=1.02u w=0.5u l=0.84u
X210 VDD VCO_C_0.INV_2_3.IN.t44 VCO_C_0.INV_2_2.IN.t8 VDD.t23 pfet_03v3 ad=0.13p pd=1.02u as=0.13p ps=1.02u w=0.5u l=0.84u
X211 VSS VCO_C_0.INV_2_4.IN.t20 VCO_C_0.OUT.t10 VSS.t119 nfet_03v3 ad=0.22p pd=1.88u as=0.13p ps=1.02u w=0.5u l=0.5u
X212 VDD VCO_C_0.INV_2_3.IN.t45 VCO_C_0.INV_2_2.IN.t9 VDD.t2 pfet_03v3 ad=0.13p pd=1.02u as=0.13p ps=1.02u w=0.5u l=0.84u
X213 VDD OUT.t25 DFF_3_mag_0.INV_2_4.OUT.t7 VDD.t156 pfet_03v3 ad=0.22p pd=1.88u as=0.13p ps=1.02u w=0.5u l=0.5u
X214 VDD.t215 VDD.t213 VDD.t215 VDD.t214 pfet_03v3 ad=0 pd=0 as=0.22p ps=1.88u w=0.5u l=0.84u
X215 VSS DFF_3_mag_0.INV_2_5.IN.t25 DFF_3_mag_0.INV_2_5.OUT.t4 VSS.t55 nfet_03v3 ad=0.22p pd=1.88u as=0.13p ps=1.02u w=0.5u l=0.5u
X216 VCO_C_0.OUT VCO_C_0.INV_2_4.IN.t21 VSS.t64 VSS.t63 nfet_03v3 ad=0.13p pd=1.02u as=0.22p ps=1.88u w=0.5u l=0.5u
X217 VDD VCO_C_0.INV_2_0.IN.t44 VCO_C_0.INV_2_5.IN.t11 VDD.t68 pfet_03v3 ad=0.13p pd=1.02u as=0.13p ps=1.02u w=0.5u l=0.84u
X218 VCO_C_0.INV_2_5.IN VCO_C_0.INV_2_0.IN.t45 VDD.t72 VDD.t71 pfet_03v3 ad=0.22p pd=1.88u as=0.13p ps=1.02u w=0.5u l=0.84u
X219 VDD OUT.t26 OUTB.t9 VDD.t113 pfet_03v3 ad=0.22p pd=1.88u as=0.13p ps=1.02u w=0.5u l=0.5u
X220 VSS.t311 VSS.t310 VSS.t311 VSS.t293 nfet_03v3 ad=0 pd=0 as=0.22p ps=1.88u w=0.5u l=0.84u
X221 OUTB a_17597_2884.t8 DFF_3_mag_0.INV_2_1.IN.t6 VDD.t77 pfet_03v3 ad=0.218p pd=1.36u as=0.218p ps=1.36u w=0.84u l=0.5u
X222 DFF_3_mag_0.INV_2_4.OUT OUT.t27 VDD.t162 VDD.t161 pfet_03v3 ad=0.13p pd=1.02u as=0.13p ps=1.02u w=0.5u l=0.5u
X223 VDD VCO_C_0.INV_2_0.IN.t46 VCO_C_0.INV_2_0.OUT.t2 VDD.t73 pfet_03v3 ad=0.13p pd=1.02u as=0.13p ps=1.02u w=0.5u l=0.5u
X224 DFF_3_mag_0.INV_2_4.OUT a_20434_1083.t9 DFF_3_mag_0.INV_2_3.IN.t11 VDD.t53 pfet_03v3 ad=0.218p pd=1.36u as=0.218p ps=1.36u w=0.84u l=0.5u
X225 VCO_C_0.INV_2_2.IN VCTRL.t11 VDD.t369 VDD.t330 pfet_03v3 ad=0.13p pd=1.02u as=0.13p ps=1.02u w=0.5u l=0.84u
X226 VDD OUT.t28 DFF_3_mag_0.INV_2_4.OUT.t5 VDD.t163 pfet_03v3 ad=0.13p pd=1.02u as=0.13p ps=1.02u w=0.5u l=0.5u
X227 VDD.t212 VDD.t210 VDD.t212 VDD.t211 pfet_03v3 ad=0 pd=0 as=0.22p ps=1.88u w=0.5u l=0.84u
X228 VCO_C_0.INV_2_2.IN VCO_C_0.INV_2_3.IN.t46 VDD.t20 VDD.t0 pfet_03v3 ad=0.22p pd=1.88u as=0.13p ps=1.02u w=0.5u l=0.84u
X229 VDD OUT.t29 OUTB.t8 VDD.t50 pfet_03v3 ad=0.13p pd=1.02u as=0.13p ps=1.02u w=0.5u l=0.5u
X230 VDD VCO_C_0.INV_2_2.IN.t48 VCO_C_0.INV_2_3.IN.t12 VDD.t23 pfet_03v3 ad=0.13p pd=1.02u as=0.13p ps=1.02u w=0.5u l=0.84u
X231 VSS VCO_C_0.OUTB.t36 DFF_3_mag_0.INV_2_0.OUT.t9 VSS.t131 nfet_03v3 ad=0.13p pd=1.02u as=0.13p ps=1.02u w=0.5u l=0.5u
X232 VCO_C_0.INV_2_0.IN VCO_C_0.OUT.t17 a_1424_1033.t14 VSS.t103 nfet_03v3 ad=0.13p pd=1.02u as=0.13p ps=1.02u w=0.5u l=0.84u
X233 VCO_C_0.INV_2_0.IN VCO_C_0.INV_2_5.IN.t45 VDD.t144 VDD.t71 pfet_03v3 ad=0.22p pd=1.88u as=0.13p ps=1.02u w=0.5u l=0.84u
X234 VSS VCTRL2.t44 a_10161_4198.t3 VSS.t7 nfet_03v3 ad=0.22p pd=1.88u as=0.13p ps=1.02u w=0.5u l=0.84u
X235 VSS VCO_C_0.INV_2_5.IN.t46 VCO_C_0.INV_2_5.OUT.t9 VSS.t49 nfet_03v3 ad=0.13p pd=1.02u as=0.13p ps=1.02u w=0.5u l=0.5u
X236 VSS VCTRL2.t46 a_10161_4198.t5 VSS.t12 nfet_03v3 ad=0.13p pd=1.02u as=0.13p ps=1.02u w=0.5u l=0.84u
X237 DFF_3_mag_0.INV_2_5.IN VCO_C_0.OUTB.t37 DFF_3_mag_0.INV_2_3.IN.t1 VSS.t134 nfet_03v3 ad=0.218p pd=1.36u as=0.37p ps=2.56u w=0.84u l=0.5u
X238 VSS.t309 VSS.t307 VSS.t309 VSS.t308 nfet_03v3 ad=0 pd=0 as=0.22p ps=1.88u w=0.5u l=0.84u
X239 VCO_C_0.INV_2_5.IN VCO_C_0.OUTB.t38 a_1424_1033.t3 VSS.t35 nfet_03v3 ad=0.22p pd=1.88u as=0.13p ps=1.02u w=0.5u l=0.84u
X240 VCO_C_0.INV_2_0.IN VCTRL.t12 VDD.t370 VDD.t245 pfet_03v3 ad=0.22p pd=1.88u as=0.13p ps=1.02u w=0.5u l=0.84u
X241 VSS.t306 VSS.t305 VSS.t306 VSS.t293 nfet_03v3 ad=0 pd=0 as=0.22p ps=1.88u w=0.5u l=0.84u
X242 VDD DFF_3_mag_0.INV_2_1.IN.t22 DFF_3_mag_0.INV_2_5.IN.t8 VDD.t317 pfet_03v3 ad=0.22p pd=1.88u as=0.13p ps=1.02u w=0.5u l=0.5u
X243 VSS.t304 VSS.t303 VSS.t304 VSS.t264 nfet_03v3 ad=0 pd=0 as=0.22p ps=1.88u w=0.5u l=0.84u
X244 OUTB OUT.t30 VDD.t168 VDD.t48 pfet_03v3 ad=0.13p pd=1.02u as=0.13p ps=1.02u w=0.5u l=0.5u
X245 VCO_C_0.INV_2_0.IN VCO_C_0.INV_2_5.IN.t47 VDD.t146 VDD.t145 pfet_03v3 ad=0.13p pd=1.02u as=0.13p ps=1.02u w=0.5u l=0.84u
X246 VSS VCTRL2.t48 a_10161_4198.t7 VSS.t12 nfet_03v3 ad=0.13p pd=1.02u as=0.13p ps=1.02u w=0.5u l=0.84u
X247 VDD VCO_C_0.INV_2_1.IN.t19 VCO_C_0.OUTB.t2 VDD.t387 pfet_03v3 ad=0.22p pd=1.88u as=0.13p ps=1.02u w=0.5u l=0.5u
X248 VCO_C_0.INV_2_2.IN VCO_C_0.INV_2_3.IN.t47 VDD.t19 VDD.t18 pfet_03v3 ad=0.13p pd=1.02u as=0.13p ps=1.02u w=0.5u l=0.84u
X249 VSS VCTRL2.t50 a_1424_1033.t38 VSS.t147 nfet_03v3 ad=0.13p pd=1.02u as=0.13p ps=1.02u w=0.5u l=0.84u
X250 VCO_C_0.INV_2_5.IN VCO_C_0.OUTB.t40 a_1424_1033.t1 VSS.t103 nfet_03v3 ad=0.13p pd=1.02u as=0.13p ps=1.02u w=0.5u l=0.84u
X251 VDD.t209 VDD.t207 VDD.t209 VDD.t208 pfet_03v3 ad=0 pd=0 as=0.22p ps=1.88u w=0.5u l=0.84u
X252 VSS VCO_C_0.INV_2_3.IN.t48 VCO_C_0.INV_2_1.IN.t9 VSS.t375 nfet_03v3 ad=0.22p pd=1.88u as=0.13p ps=1.02u w=0.5u l=0.5u
X253 VCO_C_0.INV_2_2.IN VCO_C_0.INV_2_0.OUT.t19 a_10161_4198.t47 VSS.t48 nfet_03v3 ad=0.22p pd=1.88u as=0.13p ps=1.02u w=0.5u l=0.84u
X254 VDD VCO_C_0.OUTB.t42 a_17597_1404.t1 VDD.t77 pfet_03v3 ad=0.218p pd=1.36u as=0.218p ps=1.36u w=0.84u l=0.5u
X255 VDD VCO_C_0.INV_2_1.IN.t20 VCO_C_0.OUTB.t1 VDD.t61 pfet_03v3 ad=0.13p pd=1.02u as=0.13p ps=1.02u w=0.5u l=0.5u
X256 VCO_C_0.INV_2_3.IN VCO_C_0.INV_2_5.OUT.t18 a_10161_4198.t8 VSS.t48 nfet_03v3 ad=0.22p pd=1.88u as=0.13p ps=1.02u w=0.5u l=0.84u