* NGSPICE file created from 7b_divider_magic_flat.ext - technology: gf180mcuC

.subckt pex_7b_divider_magic VDD LD D2_7 Q1 D2_6 Q2 D2_5 D2_4 Q3 Q4 D2_3 D2_2 Q5 D2_1 Q6 Q7 CLK VSS OUT1 P2
X0 a_2749_684# 7b_counter_0.MDFF_0.mux_magic_3.OR_magic_0.A VDD.t150 VDD.t144 pfet_03v3 ad=0.291p pd=1.64u as=0.493p ps=3.12u w=1.12u l=0.56u
X1 VSS CLK.t0 a_16065_9774# VSS.t667 nfet_03v3 ad=0.291p pd=1.64u as=0.291p ps=1.64u w=1.12u l=0.56u
X2 7b_counter_0.MDFF_3.mux_magic_3.OR_magic_0.B a_1209_7469# VDD.t143 VDD.t142 pfet_03v3 ad=0.291p pd=1.64u as=0.291p ps=1.64u w=1.12u l=0.56u
X3 7b_counter_0.MDFF_1.mux_magic_3.OR_magic_0.B a_15865_3363# VSS.t729 VSS.t172 nfet_03v3 ad=0.493p pd=3.12u as=0.493p ps=3.12u w=1.12u l=0.56u
X4 DFF_magic_0.tg_magic_0.IN CLK.t1 DFF_magic_0.tg_magic_3.OUT VSS.t666 nfet_03v3 ad=0.493p pd=3.12u as=0.291p ps=1.64u w=1.12u l=0.56u
X5 7b_counter_0.3_inp_AND_magic_0.C Q3.t3 a_23207_5815# VDD.t2284 pfet_03v3 ad=0.493p pd=3.12u as=0.291p ps=1.64u w=1.12u l=0.56u
X6 p3_gen_magic_0.neg_DFF_magic_0.tg_magic_2.OUT p3_gen_magic_0.neg_DFF_magic_0.tg_magic_1.CLK p3_gen_magic_0.neg_DFF_magic_0.tg_magic_1.IN.t11 VSS.t728 nfet_03v3 ad=0.493p pd=3.12u as=0.291p ps=1.64u w=1.12u l=0.56u
X7 a_1559_n1526# D2_4.t0 p2_gen_magic_0.xnor_magic_3.OUT VDD.t2045 pfet_03v3 ad=0.493p pd=3.12u as=0.291p ps=1.64u w=1.12u l=0.56u
X8 a_30365_3514# P2.t6 a_30365_4922# VDD.t2219 pfet_03v3 ad=0.493p pd=3.12u as=0.291p ps=1.64u w=1.12u l=0.56u
X9 VDD a_14556_n8142# p3_gen_magic_0.3_inp_AND_magic_0.B VDD.t1792 pfet_03v3 ad=0.493p pd=3.12u as=0.291p ps=1.64u w=1.12u l=0.56u
X10 p2_gen_magic_0.DFF_magic_0.tg_magic_0.IN p2_gen_magic_0.DFF_magic_0.tg_magic_0.inverter_magic_0.VOUT p2_gen_magic_0.DFF_magic_0.tg_magic_3.OUT VDD.t1800 pfet_03v3 ad=0.291p pd=1.64u as=0.493p ps=3.12u w=1.12u l=0.56u
X11 VDD Q3.t4 p2_gen_magic_0.xnor_magic_3.inverter_magic_1.VOUT VDD.t2287 pfet_03v3 ad=0.291p pd=1.64u as=0.291p ps=1.64u w=1.12u l=0.56u
X12 a_6725_2092# 7b_counter_0.MDFF_0.mux_magic_2.OR_magic_0.B a_6725_684# VDD.t422 pfet_03v3 ad=0.493p pd=3.12u as=0.291p ps=1.64u w=1.12u l=0.56u
X13 VDD p3_gen_magic_0.xnor_magic_1.B.t3 p3_gen_magic_0.xnor_magic_1.inverter_magic_0.VOUT VDD.t2455 pfet_03v3 ad=0.493p pd=3.12u as=0.291p ps=1.64u w=1.12u l=0.56u
X14 a_2749_2092# 7b_counter_0.MDFF_0.mux_magic_3.OR_magic_0.B a_2749_684# VDD.t147 pfet_03v3 ad=0.493p pd=3.12u as=0.291p ps=1.64u w=1.12u l=0.56u
X15 a_16065_2253# D2_3.t0 VSS.t1448 VSS.t625 nfet_03v3 ad=0.291p pd=1.64u as=0.291p ps=1.64u w=1.12u l=0.56u
X16 VDD 7b_counter_0.MDFF_6.mux_magic_3.OR_magic_0.A a_17405_10149# VDD.t1033 pfet_03v3 ad=0.291p pd=1.64u as=0.493p ps=3.12u w=1.12u l=0.56u
X17 p2_gen_magic_0.xnor_magic_1.OUT p2_gen_magic_0.xnor_magic_1.inverter_magic_0.VOUT a_1541_n4081# VDD.t1150 pfet_03v3 ad=0.291p pd=1.64u as=0.291p ps=1.64u w=1.12u l=0.56u
X18 VDD a_23258_1746# 7b_counter_0.MDFF_7.mux_magic_2.OR_magic_0.B VDD.t471 pfet_03v3 ad=0.291p pd=1.64u as=0.291p ps=1.64u w=1.12u l=0.56u
X19 a_21381_3524# 7b_counter_0.MDFF_1.mux_magic_2.OR_magic_0.B VSS.t53 VSS.t52 nfet_03v3 ad=0.493p pd=3.12u as=0.291p ps=1.64u w=1.12u l=0.56u
X20 7b_counter_0.MDFF_6.mux_magic_2.OR_magic_0.A a_19841_9774# VDD.t170 VDD.t169 pfet_03v3 ad=0.291p pd=1.64u as=0.291p ps=1.64u w=1.12u l=0.56u
X21 p3_gen_magic_0.neg_DFF_magic_0.tg_magic_1.IN p3_gen_magic_0.neg_DFF_magic_0.tg_magic_3.OUT VDD.t1093 VDD.t1092 pfet_03v3 ad=0.291p pd=1.64u as=0.291p ps=1.64u w=1.12u l=0.56u
X22 p3_gen_magic_0.xnor_magic_4.OUT Q2.t3 a_5054_n6471# VSS.t1406 nfet_03v3 ad=0.291p pd=1.64u as=0.493p ps=3.12u w=1.12u l=0.56u
X23 p3_gen_magic_0.xnor_magic_6.inverter_magic_0.VOUT D2_6.t0 VDD.t1363 VDD.t1362 pfet_03v3 ad=0.291p pd=1.64u as=0.493p ps=3.12u w=1.12u l=0.56u
X24 a_1541_n3597# D2_1.t0 p2_gen_magic_0.xnor_magic_1.OUT VDD.t1149 pfet_03v3 ad=0.493p pd=3.12u as=0.291p ps=1.64u w=1.12u l=0.56u
X25 7b_counter_0.MDFF_5.LD a_29512_8496.t9 VDD.t1195 VDD.t1189 pfet_03v3 ad=0.493p pd=3.12u as=0.291p ps=1.64u w=1.12u l=0.56u
X26 a_12174_n8579# p3_gen_magic_0.xnor_magic_2.inverter_magic_0.VOUT p3_gen_magic_0.AND2_magic_1.A VDD.t1415 pfet_03v3 ad=0.493p pd=3.12u as=0.291p ps=1.64u w=1.12u l=0.56u
X27 7b_counter_0.MDFF_1.mux_magic_3.OR_magic_0.A a_15865_4557# VSS.t93 VSS.t92 nfet_03v3 ad=0.493p pd=3.12u as=0.493p ps=3.12u w=1.12u l=0.56u
X28 a_11279_8697# 7b_counter_0.MDFF_5.mux_magic_3.OR_magic_0.B a_11191_10149# VDD.t165 pfet_03v3 ad=0.291p pd=1.64u as=0.493p ps=3.12u w=1.12u l=0.56u
X29 7b_counter_0.MDFF_0.mux_magic_2.OR_magic_0.B a_5185_2253# VDD.t1646 VDD.t1645 pfet_03v3 ad=0.291p pd=1.64u as=0.291p ps=1.64u w=1.12u l=0.56u
X30 VDD a_19841_9774# 7b_counter_0.MDFF_6.mux_magic_2.OR_magic_0.A VDD.t166 pfet_03v3 ad=0.493p pd=3.12u as=0.291p ps=1.64u w=1.12u l=0.56u
X31 7b_counter_0.MDFF_6.mux_magic_2.AND2_magic_0.A 7b_counter_0.MDFF_5.LD.t9 VDD.t1199 VDD.t1198 pfet_03v3 ad=0.291p pd=1.64u as=0.493p ps=3.12u w=1.12u l=0.56u
X32 a_12931_7470# D2_2.t0 VSS.t1099 VSS.t619 nfet_03v3 ad=0.291p pd=1.64u as=0.291p ps=1.64u w=1.12u l=0.56u
X33 7b_counter_0.MDFF_0.mux_magic_3.OR_magic_0.B a_1209_2253# VDD.t1748 VDD.t1747 pfet_03v3 ad=0.291p pd=1.64u as=0.291p ps=1.64u w=1.12u l=0.56u
X34 a_18891_6886# 7b_counter_0.MDFF_6.tspc2_magic_0.CLK a_19152_5956# VDD.t1750 pfet_03v3 ad=0.291p pd=1.64u as=0.291p ps=1.64u w=1.12u l=0.56u
X35 7b_counter_0.MDFF_0.mux_magic_2.AND2_magic_0.A LD.t9 VSS.t1056 VSS.t1055 nfet_03v3 ad=0.291p pd=1.64u as=0.493p ps=3.12u w=1.12u l=0.56u
X36 7b_counter_0.MDFF_6.tspc2_magic_0.CLK a_17405_8741# VDD.t577 VDD.t575 pfet_03v3 ad=0.493p pd=3.12u as=0.493p ps=3.12u w=1.12u l=0.56u
X37 p2_gen_magic_0.xnor_magic_4.OUT p2_gen_magic_0.xnor_magic_4.inverter_magic_0.VOUT a_5054_n1042# VDD.t770 pfet_03v3 ad=0.291p pd=1.64u as=0.291p ps=1.64u w=1.12u l=0.56u
X38 a_26038_4932# 7b_counter_0.MDFF_7.mux_magic_0.OR_magic_0.B a_26126_3480# VDD.t776 pfet_03v3 ad=0.291p pd=1.64u as=0.291p ps=1.64u w=1.12u l=0.56u
X39 a_1209_8579# D2_7.t0 VDD.t1958 VDD.t1957 pfet_03v3 ad=0.291p pd=1.64u as=0.291p ps=1.64u w=1.12u l=0.56u
X40 VSS mux_magic_0.IN2.t5 divide_by_2_0.tg_magic_2.IN VSS.t1243 nfet_03v3 ad=0.493p pd=3.12u as=0.291p ps=1.64u w=1.12u l=0.56u
X41 a_24059_4877# 7b_counter_0.MDFF_7.tspc2_magic_0.D VSS.t1353 VSS.t1352 nfet_03v3 ad=0.493p pd=3.12u as=0.291p ps=1.64u w=1.12u l=0.56u
X42 7b_counter_0.MDFF_1.tspc2_magic_0.D a_17405_2092# VDD.t2328 VDD.t2327 pfet_03v3 ad=0.493p pd=3.12u as=0.493p ps=3.12u w=1.12u l=0.56u
X43 p3_gen_magic_0.neg_DFF_magic_0.tg_magic_2.inverter_magic_0.VOUT CLK.t2 VSS.t665 VSS.t664 nfet_03v3 ad=0.291p pd=1.64u as=0.493p ps=3.12u w=1.12u l=0.56u
X44 VDD 7b_counter_0.DFF_magic_0.Q.t6 DFF_magic_0.D VDD.t2047 pfet_03v3 ad=0.291p pd=1.64u as=0.291p ps=1.64u w=1.12u l=0.56u
X45 p3_gen_magic_0.xnor_magic_0.inverter_magic_1.VOUT Q1.t3 VDD.t2059 VDD.t2058 pfet_03v3 ad=0.291p pd=1.64u as=0.291p ps=1.64u w=1.12u l=0.56u
X46 mux_magic_0.AND2_magic_0.A D2_1.t1 VDD.t1301 VDD.t1300 pfet_03v3 ad=0.493p pd=3.12u as=0.291p ps=1.64u w=1.12u l=0.56u
X47 VDD 7b_counter_0.MDFF_7.tspc2_magic_0.CLK.t3 a_23560_3728# VDD.t1467 pfet_03v3 ad=0.493p pd=3.12u as=0.291p ps=1.64u w=1.12u l=0.56u
X48 7b_counter_0.DFF_magic_0.tg_magic_1.inverter_magic_0.VOUT CLK.t3 VDD.t2530 VDD.t2529 pfet_03v3 ad=0.291p pd=1.64u as=0.493p ps=3.12u w=1.12u l=0.56u
X49 VSS p3_gen_magic_0.neg_DFF_magic_0.tg_magic_2.OUT p3_gen_magic_0.P3.t1 VSS.t30 nfet_03v3 ad=0.493p pd=3.12u as=0.291p ps=1.64u w=1.12u l=0.56u
X50 p2_gen_magic_0.DFF_magic_0.tg_magic_2.OUT CLK.t4 p2_gen_magic_0.DFF_magic_0.tg_magic_1.IN.t2 VSS.t663 nfet_03v3 ad=0.493p pd=3.12u as=0.291p ps=1.64u w=1.12u l=0.56u
X51 p2_gen_magic_0.DFF_magic_0.tg_magic_1.inverter_magic_0.VOUT CLK.t5 VDD.t2528 VDD.t2527 pfet_03v3 ad=0.291p pd=1.64u as=0.291p ps=1.64u w=1.12u l=0.56u
X52 VDD 7b_counter_0.MDFF_4.LD.t9 7b_counter_0.MDFF_4.mux_magic_0.AND2_magic_0.A VDD.t1476 pfet_03v3 ad=0.291p pd=1.64u as=0.493p ps=3.12u w=1.12u l=0.56u
X53 VDD 7b_counter_0.DFF_magic_0.Q.t7 7b_counter_0.DFF_magic_0.D VDD.t2050 pfet_03v3 ad=0.291p pd=1.64u as=0.291p ps=1.64u w=1.12u l=0.56u
X54 a_19307_6886# 7b_counter_0.MDFF_6.tspc2_magic_0.CLK VSS.t1019 VSS.t1018 nfet_03v3 ad=0.291p pd=1.64u as=0.291p ps=1.64u w=1.12u l=0.56u
X55 7b_counter_0.MDFF_4.mux_magic_3.AND2_magic_0.A 7b_counter_0.MDFF_4.LD.t10 VSS.t900 VSS.t899 nfet_03v3 ad=0.291p pd=1.64u as=0.291p ps=1.64u w=1.12u l=0.56u
X56 a_7215_10149# 7b_counter_0.MDFF_5.mux_magic_2.OR_magic_0.B a_7303_8697# VDD.t1442 pfet_03v3 ad=0.291p pd=1.64u as=0.493p ps=3.12u w=1.12u l=0.56u
X57 a_4496_10093# 7b_counter_0.MDFF_3.tspc2_magic_0.D VDD.t1455 VDD.t1453 pfet_03v3 ad=0.291p pd=1.64u as=0.291p ps=1.64u w=1.12u l=0.56u
X58 a_4651_9163# 7b_counter_0.MDFF_3.tspc2_magic_0.CLK.t3 VSS.t1164 VSS.t1163 nfet_03v3 ad=0.291p pd=1.64u as=0.291p ps=1.64u w=1.12u l=0.56u
X59 a_23985_7877# 7b_counter_0.3_inp_AND_magic_0.B VDD.t1757 VDD.t1755 pfet_03v3 ad=0.291p pd=1.64u as=0.291p ps=1.64u w=1.12u l=0.56u
X60 VSS 7b_counter_0.MDFF_4.LD.t11 7b_counter_0.MDFF_7.mux_magic_0.AND2_magic_0.A VSS.t901 nfet_03v3 ad=0.291p pd=1.64u as=0.493p ps=3.12u w=1.12u l=0.56u
X61 VSS CLK.t6 p3_gen_magic_0.neg_DFF_magic_0.tg_magic_3.inverter_magic_0.VOUT VSS.t660 nfet_03v3 ad=0.493p pd=3.12u as=0.291p ps=1.64u w=1.12u l=0.56u
X62 VSS 7b_counter_0.MDFF_4.LD.t12 7b_counter_0.MDFF_1.mux_magic_2.AND2_magic_0.A VSS.t904 nfet_03v3 ad=0.291p pd=1.64u as=0.291p ps=1.64u w=1.12u l=0.56u
X63 p3_gen_magic_0.3_inp_AND_magic_0.C a_16186_n8142# VSS.t1008 VSS.t1007 nfet_03v3 ad=0.493p pd=3.12u as=0.493p ps=3.12u w=1.12u l=0.56u
X64 VSS D2_5.t0 a_1409_3363# VSS.t584 nfet_03v3 ad=0.291p pd=1.64u as=0.291p ps=1.64u w=1.12u l=0.56u
X65 VSS divide_by_2_1.tg_magic_3.CLK.t3 divide_by_2_1.tg_magic_3.inverter_magic_0.VOUT VSS.t1147 nfet_03v3 ad=0.493p pd=3.12u as=0.291p ps=1.64u w=1.12u l=0.56u
X66 VSS a_11279_1124# 7b_counter_0.MDFF_4.tspc2_magic_0.D VSS.t708 nfet_03v3 ad=0.493p pd=3.12u as=0.493p ps=3.12u w=1.12u l=0.56u
X67 VDD D2_5.t1 p3_gen_magic_0.xnor_magic_2.inverter_magic_0.VOUT VDD.t2719 pfet_03v3 ad=0.493p pd=3.12u as=0.291p ps=1.64u w=1.12u l=0.56u
X68 p2_gen_magic_0.AND2_magic_1.A D2_5.t2 a_12174_n3597# VDD.t441 pfet_03v3 ad=0.291p pd=1.64u as=0.291p ps=1.64u w=1.12u l=0.56u
X69 p3_gen_magic_0.xnor_magic_3.inverter_magic_1.VOUT Q3.t5 VSS.t1337 VSS.t1336 nfet_03v3 ad=0.291p pd=1.64u as=0.493p ps=3.12u w=1.12u l=0.56u
X70 7b_counter_0.MDFF_7.mux_magic_3.AND2_magic_0.A 7b_counter_0.MDFF_4.LD.t13 VSS.t908 VSS.t907 nfet_03v3 ad=0.291p pd=1.64u as=0.291p ps=1.64u w=1.12u l=0.56u
X71 VDD 7b_counter_0.MDFF_4.LD.t14 7b_counter_0.MDFF_4.mux_magic_3.AND2_magic_0.A VDD.t1479 pfet_03v3 ad=0.493p pd=3.12u as=0.291p ps=1.64u w=1.12u l=0.56u
X72 a_15865_1059# 7b_counter_0.MDFF_1.mux_magic_0.AND2_magic_0.A VDD.t592 VDD.t591 pfet_03v3 ad=0.291p pd=1.64u as=0.493p ps=3.12u w=1.12u l=0.56u
X73 VDD 7b_counter_0.MDFF_4.LD.t15 7b_counter_0.MDFF_4.mux_magic_2.AND2_magic_0.A VDD.t1482 pfet_03v3 ad=0.493p pd=3.12u as=0.291p ps=1.64u w=1.12u l=0.56u
X74 p3_gen_magic_0.xnor_magic_5.inverter_magic_1.VOUT Q6.t3 VDD.t2162 VDD.t2161 pfet_03v3 ad=0.291p pd=1.64u as=0.291p ps=1.64u w=1.12u l=0.56u
X75 a_9059_n1973# p2_gen_magic_0.xnor_magic_0.inverter_magic_1.VOUT p2_gen_magic_0.xnor_magic_0.OUT VSS.t1010 nfet_03v3 ad=0.291p pd=1.64u as=0.291p ps=1.64u w=1.12u l=0.56u
X76 7b_counter_0.MDFF_1.mux_magic_2.AND2_magic_0.A 7b_counter_0.MDFF_4.LD.t16 VDD.t1486 VDD.t1485 pfet_03v3 ad=0.493p pd=3.12u as=0.291p ps=1.64u w=1.12u l=0.56u
X77 p3_gen_magic_0.neg_DFF_magic_0.tg_magic_0.IN p3_gen_magic_0.neg_DFF_magic_0.tg_magic_0.inverter_magic_0.VOUT p3_gen_magic_0.neg_DFF_magic_0.tg_magic_3.OUT VDD.t1743 pfet_03v3 ad=0.291p pd=1.64u as=0.493p ps=3.12u w=1.12u l=0.56u
X78 a_1209_3363# D2_5.t3 VDD.t2723 VDD.t2722 pfet_03v3 ad=0.291p pd=1.64u as=0.291p ps=1.64u w=1.12u l=0.56u
X79 p2_gen_magic_0.xnor_magic_4.inverter_magic_1.VOUT Q2.t4 VDD.t2410 VDD.t2409 pfet_03v3 ad=0.291p pd=1.64u as=0.493p ps=3.12u w=1.12u l=0.56u
X80 7b_counter_0.MDFF_1.mux_magic_3.AND2_magic_0.A 7b_counter_0.MDFF_4.LD.t17 VDD.t1488 VDD.t1487 pfet_03v3 ad=0.493p pd=3.12u as=0.291p ps=1.64u w=1.12u l=0.56u
X81 VDD 7b_counter_0.MDFF_4.LD.t18 7b_counter_0.MDFF_7.mux_magic_2.AND2_magic_0.A VDD.t1489 pfet_03v3 ad=0.493p pd=3.12u as=0.291p ps=1.64u w=1.12u l=0.56u
X82 a_22991_5815# Q1.t4 VDD.t2061 VDD.t2060 pfet_03v3 ad=0.291p pd=1.64u as=0.493p ps=3.12u w=1.12u l=0.56u
X83 VDD divide_by_2_0.tg_magic_3.CLK.t5 divide_by_2_0.tg_magic_2.inverter_magic_0.VOUT VDD.t1811 pfet_03v3 ad=0.493p pd=3.12u as=0.291p ps=1.64u w=1.12u l=0.56u
X84 DFF_magic_0.tg_magic_2.IN DFF_magic_0.tg_magic_2.inverter_magic_0.VOUT DFF_magic_0.tg_magic_2.OUT VDD.t1002 pfet_03v3 ad=0.291p pd=1.64u as=0.493p ps=3.12u w=1.12u l=0.56u
X85 VDD a_12387_9730# 7b_counter_0.MDFF_5.mux_magic_3.OR_magic_0.A VDD.t1015 pfet_03v3 ad=0.291p pd=1.64u as=0.291p ps=1.64u w=1.12u l=0.56u
X86 p2_gen_magic_0.DFF_magic_0.tg_magic_3.CLK CLK.t7 VDD.t2526 VDD.t2525 pfet_03v3 ad=0.291p pd=1.64u as=0.291p ps=1.64u w=1.12u l=0.56u
X87 a_2749_2092# 7b_counter_0.MDFF_0.mux_magic_3.OR_magic_0.B a_2749_684# VDD.t372 pfet_03v3 ad=0.291p pd=1.64u as=0.291p ps=1.64u w=1.12u l=0.56u
X88 a_4235_3947# 7b_counter_0.MDFF_0.tspc2_magic_0.CLK.t4 a_4496_4877# VDD.t2449 pfet_03v3 ad=0.291p pd=1.64u as=0.291p ps=1.64u w=1.12u l=0.56u
X89 p2_gen_magic_0.DFF_magic_0.tg_magic_2.inverter_magic_0.VOUT p2_gen_magic_0.DFF_magic_0.tg_magic_3.CLK.t6 VSS.t1386 VSS.t1385 nfet_03v3 ad=0.291p pd=1.64u as=0.493p ps=3.12u w=1.12u l=0.56u
X90 a_6725_684# 7b_counter_0.MDFF_0.mux_magic_2.OR_magic_0.B a_6725_2092# VDD.t421 pfet_03v3 ad=0.493p pd=3.12u as=0.291p ps=1.64u w=1.12u l=0.56u
X91 VDD a_5185_1059# 7b_counter_0.MDFF_0.mux_magic_2.OR_magic_0.A VDD.t1688 pfet_03v3 ad=0.493p pd=3.12u as=0.291p ps=1.64u w=1.12u l=0.56u
X92 VSS 7b_counter_0.MDFF_0.QB.t4 a_1409_4557# VSS.t1426 nfet_03v3 ad=0.291p pd=1.64u as=0.291p ps=1.64u w=1.12u l=0.56u
X93 a_5185_7469# D2_7.t1 VDD.t1960 VDD.t1959 pfet_03v3 ad=0.291p pd=1.64u as=0.291p ps=1.64u w=1.12u l=0.56u
X94 VDD 7b_counter_0.MDFF_3.mux_magic_3.AND2_magic_0.A a_1209_6275# VDD.t1705 pfet_03v3 ad=0.291p pd=1.64u as=0.291p ps=1.64u w=1.12u l=0.56u
X95 VSS p2_gen_magic_0.DFF_magic_0.tg_magic_2.OUT P2.t1 VSS.t1380 nfet_03v3 ad=0.493p pd=3.12u as=0.291p ps=1.64u w=1.12u l=0.56u
X96 7b_counter_0.MDFF_3.mux_magic_0.AND2_magic_0.A LD.t10 VSS.t1058 VSS.t1057 nfet_03v3 ad=0.291p pd=1.64u as=0.493p ps=3.12u w=1.12u l=0.56u
X97 7b_counter_0.3_inp_AND_magic_0.VOUT 7b_counter_0.3_inp_AND_magic_0.VOUT 7b_counter_0.3_inp_AND_magic_0.VOUT VDD.t792 pfet_03v3 ad=0.493p pd=3.12u as=1.97p ps=12.5u w=1.12u l=0.56u
X98 a_15865_3363# 7b_counter_0.MDFF_4.LD.t19 a_16065_3363# VSS.t909 nfet_03v3 ad=0.493p pd=3.12u as=0.291p ps=1.64u w=1.12u l=0.56u
X99 7b_counter_0.DFF_magic_0.tg_magic_0.IN 7b_counter_0.DFF_magic_0.tg_magic_0.inverter_magic_0.VOUT 7b_counter_0.DFF_magic_0.tg_magic_3.OUT VDD.t795 pfet_03v3 ad=0.493p pd=3.12u as=0.291p ps=1.64u w=1.12u l=0.56u
X100 VSS 7b_counter_0.MDFF_5.LD.t10 7b_counter_0.MDFF_5.mux_magic_0.AND2_magic_0.A VSS.t744 nfet_03v3 ad=0.493p pd=3.12u as=0.291p ps=1.64u w=1.12u l=0.56u
X101 divide_by_2_0.tg_magic_3.inverter_magic_0.VOUT divide_by_2_0.tg_magic_3.CLK.t6 VDD.t1815 VDD.t1814 pfet_03v3 ad=0.291p pd=1.64u as=0.493p ps=3.12u w=1.12u l=0.56u
X102 a_8643_n1526# D2_2.t1 p2_gen_magic_0.xnor_magic_0.OUT VDD.t458 pfet_03v3 ad=0.493p pd=3.12u as=0.291p ps=1.64u w=1.12u l=0.56u
X103 a_12387_8536# 7b_counter_0.MDFF_5.LD.t11 a_12931_8580# VSS.t747 nfet_03v3 ad=0.493p pd=3.12u as=0.291p ps=1.64u w=1.12u l=0.56u
X104 p2_gen_magic_0.xnor_magic_3.OUT p2_gen_magic_0.xnor_magic_3.inverter_magic_0.VOUT a_1559_n1042# VDD.t2046 pfet_03v3 ad=0.291p pd=1.64u as=0.291p ps=1.64u w=1.12u l=0.56u
X105 p2_gen_magic_0.xnor_magic_1.OUT Q7.t3 a_1541_n3150# VSS.t845 nfet_03v3 ad=0.291p pd=1.64u as=0.493p ps=3.12u w=1.12u l=0.56u
X106 p2_gen_magic_0.DFF_magic_0.tg_magic_3.CLK CLK.t8 VSS.t655 VSS.t654 nfet_03v3 ad=0.291p pd=1.64u as=0.493p ps=3.12u w=1.12u l=0.56u
X107 a_8825_1669# 7b_counter_0.MDFF_4.tspc2_magic_0.CLK.t3 7b_counter_0.MDFF_4.QB.t3 VSS.t1514 nfet_03v3 ad=0.291p pd=1.64u as=0.291p ps=1.64u w=1.12u l=0.56u
X108 VSS CLK.t9 7b_counter_0.DFF_magic_0.tg_magic_3.CLK.t1 VSS.t657 nfet_03v3 ad=0.493p pd=3.12u as=0.291p ps=1.64u w=1.12u l=0.56u
X109 a_2749_8740# 7b_counter_0.MDFF_3.mux_magic_0.OR_magic_0.B VSS.t48 VSS.t47 nfet_03v3 ad=0.493p pd=3.12u as=0.291p ps=1.64u w=1.12u l=0.56u
X110 VDD p3_gen_magic_0.xnor_magic_4.inverter_magic_1.VOUT a_5054_n5540# VDD.t75 pfet_03v3 ad=0.291p pd=1.64u as=0.493p ps=3.12u w=1.12u l=0.56u
X111 7b_counter_0.MDFF_6.mux_magic_0.AND2_magic_0.A 7b_counter_0.MDFF_5.LD.t12 VSS.t749 VSS.t748 nfet_03v3 ad=0.493p pd=3.12u as=0.291p ps=1.64u w=1.12u l=0.56u
X112 7b_counter_0.DFF_magic_0.tg_magic_2.inverter_magic_0.VOUT 7b_counter_0.DFF_magic_0.tg_magic_3.CLK.t6 VDD.t2021 VDD.t2020 pfet_03v3 ad=0.291p pd=1.64u as=0.291p ps=1.64u w=1.12u l=0.56u
X113 a_16065_2253# 7b_counter_0.MDFF_4.LD.t20 a_15865_2253# VSS.t910 nfet_03v3 ad=0.291p pd=1.64u as=0.493p ps=3.12u w=1.12u l=0.56u
X114 7b_counter_0.MDFF_1.mux_magic_3.OR_magic_0.B a_15865_3363# VDD.t1175 VDD.t1174 pfet_03v3 ad=0.291p pd=1.64u as=0.291p ps=1.64u w=1.12u l=0.56u
X115 a_8411_3319# 7b_counter_0.MDFF_4.LD.t21 VDD.t1493 VDD.t1492 pfet_03v3 ad=0.291p pd=1.64u as=0.291p ps=1.64u w=1.12u l=0.56u
X116 VDD 7b_counter_0.MDFF_4.mux_magic_0.OR_magic_0.A a_11191_684# VDD.t350 pfet_03v3 ad=0.493p pd=3.12u as=0.291p ps=1.64u w=1.12u l=0.56u
X117 a_1409_1059# Q4.t3 VSS.t976 VSS.t975 nfet_03v3 ad=0.291p pd=1.64u as=0.291p ps=1.64u w=1.12u l=0.56u
X118 VDD 7b_counter_0.MDFF_4.mux_magic_3.AND2_magic_0.A a_12387_4513# VDD.t1437 pfet_03v3 ad=0.493p pd=3.12u as=0.291p ps=1.64u w=1.12u l=0.56u
X119 a_11279_3480# 7b_counter_0.MDFF_4.mux_magic_3.OR_magic_0.B a_11191_4932# VDD.t1144 pfet_03v3 ad=0.291p pd=1.64u as=0.493p ps=3.12u w=1.12u l=0.56u
X120 VDD 7b_counter_0.MDFF_5.mux_magic_0.OR_magic_0.A a_11191_5901# VDD.t360 pfet_03v3 ad=0.493p pd=3.12u as=0.291p ps=1.64u w=1.12u l=0.56u
X121 VDD OR_magic_2.A.t6 a_30365_4922# VDD.t2329 pfet_03v3 ad=0.291p pd=1.64u as=0.493p ps=3.12u w=1.12u l=0.56u
X122 a_11292_n2115# p2_gen_magic_0.xnor_magic_4.OUT VDD.t773 VDD.t771 pfet_03v3 ad=0.291p pd=1.64u as=0.291p ps=1.64u w=1.12u l=0.56u
X123 7b_counter_0.DFF_magic_0.tg_magic_3.OUT 7b_counter_0.DFF_magic_0.tg_magic_3.inverter_magic_0.VOUT 7b_counter_0.DFF_magic_0.D VDD.t368 pfet_03v3 ad=0.493p pd=3.12u as=0.291p ps=1.64u w=1.12u l=0.56u
X124 a_21381_3524# 7b_counter_0.MDFF_1.mux_magic_2.OR_magic_0.B a_21381_4932# VDD.t78 pfet_03v3 ad=0.493p pd=3.12u as=0.291p ps=1.64u w=1.12u l=0.56u
X125 VSS D2_7.t2 p3_gen_magic_0.xnor_magic_5.inverter_magic_0.VOUT VSS.t1123 nfet_03v3 ad=0.493p pd=3.12u as=0.291p ps=1.64u w=1.12u l=0.56u
X126 VSS CLK.t10 DFF_magic_0.tg_magic_0.inverter_magic_0.VOUT VSS.t652 nfet_03v3 ad=0.493p pd=3.12u as=0.291p ps=1.64u w=1.12u l=0.56u
X127 p2_gen_magic_0.3_inp_AND_magic_0.A a_11292_n2115# VSS.t181 VSS.t180 nfet_03v3 ad=0.493p pd=3.12u as=0.291p ps=1.64u w=1.12u l=0.56u
X128 VDD Q6.t4 a_21504_5904# VDD.t2163 pfet_03v3 ad=0.291p pd=1.64u as=0.493p ps=3.12u w=1.12u l=0.56u
X129 a_15865_4557# 7b_counter_0.MDFF_1.mux_magic_3.AND2_magic_0.A a_16065_4557# VSS.t160 nfet_03v3 ad=0.493p pd=3.12u as=0.291p ps=1.64u w=1.12u l=0.56u
X130 VDD 7b_counter_0.MDFF_7.mux_magic_3.OR_magic_0.A a_26038_684# VDD.t1096 pfet_03v3 ad=0.493p pd=3.12u as=0.291p ps=1.64u w=1.12u l=0.56u
X131 a_12387_9730# 7b_counter_0.MDFF_5.mux_magic_3.AND2_magic_0.A a_12931_9774# VSS.t686 nfet_03v3 ad=0.493p pd=3.12u as=0.291p ps=1.64u w=1.12u l=0.56u
X132 VDD p2_gen_magic_0.3_inp_AND_magic_0.C.t3 a_13353_n2115# VDD.t2714 pfet_03v3 ad=0.291p pd=1.64u as=0.291p ps=1.64u w=1.12u l=0.56u
X133 a_5185_2253# D2_5.t4 VDD.t2725 VDD.t2724 pfet_03v3 ad=0.291p pd=1.64u as=0.291p ps=1.64u w=1.12u l=0.56u
X134 a_13769_n2115# p2_gen_magic_0.3_inp_AND_magic_0.B a_13553_n2115# VSS.t689 nfet_03v3 ad=0.291p pd=1.64u as=0.291p ps=1.64u w=1.12u l=0.56u
X135 p2_gen_magic_0.xnor_magic_0.inverter_magic_1.VOUT Q1.t5 VSS.t1194 VSS.t1193 nfet_03v3 ad=0.291p pd=1.64u as=0.493p ps=3.12u w=1.12u l=0.56u
X136 VSS a_26126_1124# 7b_counter_0.MDFF_7.tspc2_magic_0.CLK.t0 VSS.t409 nfet_03v3 ad=0.493p pd=3.12u as=0.493p ps=3.12u w=1.12u l=0.56u
X137 VDD 7b_counter_0.MDFF_4.LD.t22 7b_counter_0.MDFF_7.mux_magic_0.AND2_magic_0.A VDD.t1494 pfet_03v3 ad=0.493p pd=3.12u as=0.291p ps=1.64u w=1.12u l=0.56u
X138 VSS a_22150_1124# Q4.t0 VSS.t692 nfet_03v3 ad=0.493p pd=3.12u as=0.493p ps=3.12u w=1.12u l=0.56u
X139 a_9212_739# 7b_counter_0.MDFF_4.tspc2_magic_0.D VSS.t1029 VSS.t1028 nfet_03v3 ad=0.493p pd=3.12u as=0.291p ps=1.64u w=1.12u l=0.56u
X140 p3_gen_magic_0.3_inp_AND_magic_0.VOUT a_13353_n6613# VDD.t1134 VDD.t1132 pfet_03v3 ad=0.493p pd=3.12u as=0.291p ps=1.64u w=1.12u l=0.56u
X141 VSS p3_gen_magic_0.neg_DFF_magic_0.tg_magic_1.CLK p3_gen_magic_0.neg_DFF_magic_0.tg_magic_0.inverter_magic_0.VOUT VSS.t725 nfet_03v3 ad=0.493p pd=3.12u as=0.291p ps=1.64u w=1.12u l=0.56u
X142 7b_counter_0.DFF_magic_0.tg_magic_3.OUT 7b_counter_0.DFF_magic_0.tg_magic_3.CLK.t7 7b_counter_0.DFF_magic_0.D VSS.t1173 nfet_03v3 ad=0.291p pd=1.64u as=0.493p ps=3.12u w=1.12u l=0.56u
X143 VDD OR_magic_1.VOUT.t3 divide_by_2_1.tg_magic_0.inverter_magic_0.VOUT VDD.t2495 pfet_03v3 ad=0.291p pd=1.64u as=0.291p ps=1.64u w=1.12u l=0.56u
X144 a_24536_3947# a_24059_4877# a_23560_3728# VSS.t1355 nfet_03v3 ad=0.291p pd=1.64u as=0.291p ps=1.64u w=1.12u l=0.56u
X145 VSS divide_by_2_0.tg_magic_1.IN.t12 divide_by_2_0.tg_magic_0.IN VSS.t860 nfet_03v3 ad=0.493p pd=3.12u as=0.291p ps=1.64u w=1.12u l=0.56u
X146 p2_gen_magic_0.DFF_magic_0.tg_magic_0.IN p2_gen_magic_0.DFF_magic_0.tg_magic_0.inverter_magic_0.VOUT p2_gen_magic_0.DFF_magic_0.tg_magic_3.OUT VDD.t1799 pfet_03v3 ad=0.493p pd=3.12u as=0.291p ps=1.64u w=1.12u l=0.56u
X147 VDD p3_gen_magic_0.neg_DFF_magic_0.tg_magic_1.IN.t12 p3_gen_magic_0.neg_DFF_magic_0.tg_magic_0.IN VDD.t2241 pfet_03v3 ad=0.291p pd=1.64u as=0.291p ps=1.64u w=1.12u l=0.56u
X148 VDD p2_gen_magic_0.xnor_magic_1.inverter_magic_1.VOUT a_1541_n4081# VDD.t808 pfet_03v3 ad=0.291p pd=1.64u as=0.493p ps=3.12u w=1.12u l=0.56u
X149 VSS p2_gen_magic_0.xnor_magic_3.OUT.t4 a_11708_n2115# VSS.t1290 nfet_03v3 ad=0.493p pd=3.12u as=0.493p ps=3.12u w=1.12u l=0.56u
X150 VSS 7b_counter_0.MDFF_0.tspc2_magic_0.D a_4235_3947# VSS.t457 nfet_03v3 ad=0.291p pd=1.64u as=0.493p ps=3.12u w=1.12u l=0.56u
X151 mux_magic_0.IN2 divide_by_2_0.tg_magic_3.IN.t18 VDD.t11 VDD.t10 pfet_03v3 ad=0.291p pd=1.64u as=0.493p ps=3.12u w=1.12u l=0.56u
X152 mux_magic_0.AND2_magic_0.A D2_1.t2 VDD.t1303 VDD.t1302 pfet_03v3 ad=0.291p pd=1.64u as=0.493p ps=3.12u w=1.12u l=0.56u
X153 VSS a_11279_6341# 7b_counter_0.MDFF_5.tspc2_magic_0.D VSS.t460 nfet_03v3 ad=0.493p pd=3.12u as=0.493p ps=3.12u w=1.12u l=0.56u
X154 p2_gen_magic_0.DFF_magic_0.tg_magic_2.IN p2_gen_magic_0.DFF_magic_0.tg_magic_2.inverter_magic_0.VOUT p2_gen_magic_0.DFF_magic_0.tg_magic_2.OUT VDD.t287 pfet_03v3 ad=0.291p pd=1.64u as=0.493p ps=3.12u w=1.12u l=0.56u
X155 p3_gen_magic_0.3_inp_AND_magic_0.C a_16186_n8142# VDD.t1725 VDD.t1724 pfet_03v3 ad=0.291p pd=1.64u as=0.291p ps=1.64u w=1.12u l=0.56u
X156 a_14756_n8142# p3_gen_magic_0.AND2_magic_1.A a_14556_n8142# VSS.t868 nfet_03v3 ad=0.291p pd=1.64u as=0.493p ps=3.12u w=1.12u l=0.56u
X157 divide_by_2_0.tg_magic_3.IN divide_by_2_0.tg_magic_3.inverter_magic_0.VOUT divide_by_2_0.tg_magic_3.OUT VDD.t564 pfet_03v3 ad=0.291p pd=1.64u as=0.291p ps=1.64u w=1.12u l=0.56u
X158 LD a_27567_8496.t9 VSS.t731 VSS.t730 nfet_03v3 ad=0.493p pd=3.12u as=0.291p ps=1.64u w=1.12u l=0.56u
X159 LD a_27567_8496.t10 VDD.t1177 VDD.t1176 pfet_03v3 ad=0.493p pd=3.12u as=0.291p ps=1.64u w=1.12u l=0.56u
X160 a_11492_n6613# p3_gen_magic_0.xnor_magic_4.OUT a_11708_n6613# VSS.t230 nfet_03v3 ad=0.291p pd=1.64u as=0.291p ps=1.64u w=1.12u l=0.56u
X161 7b_counter_0.MDFF_6.mux_magic_2.OR_magic_0.B a_19841_8580# VDD.t1125 VDD.t1124 pfet_03v3 ad=0.291p pd=1.64u as=0.291p ps=1.64u w=1.12u l=0.56u
X162 VSS D2_3.t1 a_16065_2253# VSS.t615 nfet_03v3 ad=0.291p pd=1.64u as=0.291p ps=1.64u w=1.12u l=0.56u
X163 a_15865_7470# D2_1.t3 VDD.t1305 VDD.t1304 pfet_03v3 ad=0.291p pd=1.64u as=0.291p ps=1.64u w=1.12u l=0.56u
X164 VDD Q1.t6 a_8643_n1526# VDD.t1731 pfet_03v3 ad=0.291p pd=1.64u as=0.493p ps=3.12u w=1.12u l=0.56u
X165 7b_counter_0.MDFF_4.LD a_31440_8496.t9 VDD.t21 VDD.t20 pfet_03v3 ad=0.291p pd=1.64u as=0.493p ps=3.12u w=1.12u l=0.56u
X166 7b_counter_0.MDFF_7.mux_magic_2.OR_magic_0.B a_23258_1746# VDD.t470 VDD.t469 pfet_03v3 ad=0.291p pd=1.64u as=0.493p ps=3.12u w=1.12u l=0.56u
X167 VSS 7b_counter_0.MDFF_1.mux_magic_2.OR_magic_0.A a_21381_3524# VSS.t52 nfet_03v3 ad=0.291p pd=1.64u as=0.493p ps=3.12u w=1.12u l=0.56u
X168 7b_counter_0.3_inp_AND_magic_0.C Q3.t6 a_23207_5815# VDD.t2290 pfet_03v3 ad=0.493p pd=3.12u as=0.291p ps=1.64u w=1.12u l=0.56u
X169 VSS D2_6.t1 p2_gen_magic_0.xnor_magic_6.inverter_magic_0.VOUT VSS.t836 nfet_03v3 ad=0.493p pd=3.12u as=0.291p ps=1.64u w=1.12u l=0.56u
X170 a_17405_10149# 7b_counter_0.MDFF_6.mux_magic_3.OR_magic_0.B a_17405_8741# VDD.t575 pfet_03v3 ad=0.493p pd=3.12u as=0.291p ps=1.64u w=1.12u l=0.56u
X171 a_5452_n7648# p3_gen_magic_0.xnor_magic_5.inverter_magic_1.VOUT p3_gen_magic_0.xnor_magic_5.OUT.t4 VSS.t1009 nfet_03v3 ad=0.291p pd=1.64u as=0.291p ps=1.64u w=1.12u l=0.56u
X172 a_5185_1059# 7b_counter_0.MDFF_0.mux_magic_2.AND2_magic_0.A VDD.t574 VDD.t573 pfet_03v3 ad=0.291p pd=1.64u as=0.493p ps=3.12u w=1.12u l=0.56u
X173 VDD 7b_counter_0.MDFF_7.mux_magic_2.OR_magic_0.A a_22062_684# VDD.t847 pfet_03v3 ad=0.493p pd=3.12u as=0.291p ps=1.64u w=1.12u l=0.56u
X174 a_20041_8580# D2_1.t4 VSS.t792 VSS.t791 nfet_03v3 ad=0.291p pd=1.64u as=0.291p ps=1.64u w=1.12u l=0.56u
X175 VDD 7b_counter_0.MDFF_4.LD.t23 7b_counter_0.MDFF_4.mux_magic_3.AND2_magic_0.A VDD.t1497 pfet_03v3 ad=0.291p pd=1.64u as=0.493p ps=3.12u w=1.12u l=0.56u
X176 VDD a_29512_8496.t10 7b_counter_0.MDFF_5.LD.t7 VDD.t1191 pfet_03v3 ad=0.291p pd=1.64u as=0.291p ps=1.64u w=1.12u l=0.56u
X177 VDD Q4.t4 a_1209_1059# VDD.t1647 pfet_03v3 ad=0.291p pd=1.64u as=0.291p ps=1.64u w=1.12u l=0.56u
X178 VDD divide_by_2_1.tg_magic_3.IN.t18 mux_magic_0.IN1.t5 VDD.t109 pfet_03v3 ad=0.493p pd=3.12u as=0.291p ps=1.64u w=1.12u l=0.56u
X179 VSS p3_gen_magic_0.xnor_magic_3.OUT.t5 a_11708_n6613# VSS.t230 nfet_03v3 ad=0.291p pd=1.64u as=0.291p ps=1.64u w=1.12u l=0.56u
X180 divide_by_2_1.tg_magic_1.IN divide_by_2_1.tg_magic_3.OUT VDD.t133 VDD.t132 pfet_03v3 ad=0.291p pd=1.64u as=0.493p ps=3.12u w=1.12u l=0.56u
X181 VDD LD.t11 7b_counter_0.MDFF_0.mux_magic_0.AND2_magic_0.A VDD.t1831 pfet_03v3 ad=0.291p pd=1.64u as=0.291p ps=1.64u w=1.12u l=0.56u
X182 VDD D2_1.t5 p3_gen_magic_0.xnor_magic_1.B VDD.t1306 pfet_03v3 ad=0.291p pd=1.64u as=0.291p ps=1.64u w=1.12u l=0.56u
X183 VDD 7b_counter_0.MDFF_7.mux_magic_2.OR_magic_0.A a_22062_684# VDD.t476 pfet_03v3 ad=0.291p pd=1.64u as=0.291p ps=1.64u w=1.12u l=0.56u
X184 VDD CLK.t11 DFF_magic_0.tg_magic_1.inverter_magic_0.VOUT VDD.t2539 pfet_03v3 ad=0.493p pd=3.12u as=0.291p ps=1.64u w=1.12u l=0.56u
X185 7b_counter_0.MDFF_6.mux_magic_0.OR_magic_0.A a_15865_6276# VDD.t2207 VDD.t2206 pfet_03v3 ad=0.291p pd=1.64u as=0.291p ps=1.64u w=1.12u l=0.56u
X186 divide_by_2_0.tg_magic_3.IN divide_by_2_0.tg_magic_3.CLK.t7 divide_by_2_0.tg_magic_2.IN VSS.t1039 nfet_03v3 ad=0.291p pd=1.64u as=0.291p ps=1.64u w=1.12u l=0.56u
X187 a_17405_2092# 7b_counter_0.MDFF_1.mux_magic_0.OR_magic_0.B a_17405_684# VDD.t2218 pfet_03v3 ad=0.493p pd=3.12u as=0.291p ps=1.64u w=1.12u l=0.56u
X188 VSS D2_2.t2 a_12931_7470# VSS.t612 nfet_03v3 ad=0.291p pd=1.64u as=0.291p ps=1.64u w=1.12u l=0.56u
X189 p3_gen_magic_0.xnor_magic_6.OUT p3_gen_magic_0.xnor_magic_6.inverter_magic_0.VOUT a_8523_n8579# VDD.t65 pfet_03v3 ad=0.291p pd=1.64u as=0.291p ps=1.64u w=1.12u l=0.56u
X190 VSS D2_3.t2 p2_gen_magic_0.xnor_magic_4.inverter_magic_0.VOUT VSS.t1451 nfet_03v3 ad=0.493p pd=3.12u as=0.291p ps=1.64u w=1.12u l=0.56u
X191 VSS D2_1.t6 mux_magic_0.AND2_magic_0.A VSS.t793 nfet_03v3 ad=0.291p pd=1.64u as=0.291p ps=1.64u w=1.12u l=0.56u
X192 DFF_magic_0.D DFF_magic_0.tg_magic_3.inverter_magic_0.VOUT DFF_magic_0.tg_magic_3.OUT VDD.t941 pfet_03v3 ad=0.291p pd=1.64u as=0.291p ps=1.64u w=1.12u l=0.56u
X193 a_17405_7309# 7b_counter_0.MDFF_6.mux_magic_0.OR_magic_0.B a_17405_5901# VDD.t629 pfet_03v3 ad=0.493p pd=3.12u as=0.291p ps=1.64u w=1.12u l=0.56u
X194 VDD Q4.t5 p3_gen_magic_0.xnor_magic_2.inverter_magic_1.VOUT VDD.t1650 pfet_03v3 ad=0.291p pd=1.64u as=0.291p ps=1.64u w=1.12u l=0.56u
X195 VDD LD.t12 7b_counter_0.MDFF_3.mux_magic_2.AND2_magic_0.A VDD.t1834 pfet_03v3 ad=0.291p pd=1.64u as=0.291p ps=1.64u w=1.12u l=0.56u
X196 7b_counter_0.MDFF_0.mux_magic_2.AND2_magic_0.A LD.t13 VDD.t1838 VDD.t1837 pfet_03v3 ad=0.493p pd=3.12u as=0.291p ps=1.64u w=1.12u l=0.56u
X197 VDD 7b_counter_0.MDFF_4.QB.t4 a_12387_552# VDD.t1432 pfet_03v3 ad=0.291p pd=1.64u as=0.291p ps=1.64u w=1.12u l=0.56u
X198 a_19841_4557# 7b_counter_0.MDFF_1.tspc2_magic_0.Q VDD.t652 VDD.t651 pfet_03v3 ad=0.291p pd=1.64u as=0.291p ps=1.64u w=1.12u l=0.56u
X199 VDD 7b_counter_0.MDFF_7.mux_magic_0.AND2_magic_0.A a_27234_4513# VDD.t1763 pfet_03v3 ad=0.493p pd=3.12u as=0.291p ps=1.64u w=1.12u l=0.56u
X200 VSS p3_gen_magic_0.xnor_magic_1.B.t4 p3_gen_magic_0.xnor_magic_1.inverter_magic_0.VOUT VSS.t1440 nfet_03v3 ad=0.493p pd=3.12u as=0.291p ps=1.64u w=1.12u l=0.56u
X201 a_26126_3480# 7b_counter_0.MDFF_7.mux_magic_0.OR_magic_0.B a_26038_4932# VDD.t775 pfet_03v3 ad=0.291p pd=1.64u as=0.493p ps=3.12u w=1.12u l=0.56u
X202 VDD 7b_counter_0.MDFF_0.tspc2_magic_0.D a_4496_4877# VDD.t876 pfet_03v3 ad=0.291p pd=1.64u as=0.291p ps=1.64u w=1.12u l=0.56u
X203 p3_gen_magic_0.neg_DFF_magic_0.tg_magic_3.inverter_magic_0.VOUT CLK.t12 VDD.t2538 VDD.t2537 pfet_03v3 ad=0.291p pd=1.64u as=0.493p ps=3.12u w=1.12u l=0.56u
X204 VSS p3_gen_magic_0.neg_DFF_magic_0.tg_magic_1.CLK p3_gen_magic_0.neg_DFF_magic_0.tg_magic_1.inverter_magic_0.VOUT VSS.t722 nfet_03v3 ad=0.493p pd=3.12u as=0.291p ps=1.64u w=1.12u l=0.56u
X205 VSS CLK.t13 p2_gen_magic_0.DFF_magic_0.tg_magic_0.inverter_magic_0.VOUT VSS.t649 nfet_03v3 ad=0.493p pd=3.12u as=0.291p ps=1.64u w=1.12u l=0.56u