** sch_path: /home/shahid/GF180Projects/Layout/Xschem/VCO/PLL_TOP_FINAL/PLL_TOP4.sch
**.subckt PLL_TOP4 UP_INPUT DN_INPUT UP_OUT DN_OUT ITAIL ITAIL1 VCTRL2 OUT OUTB VDD VSS PRE_SCALAR
*+ F_IN DIV_OUT S1 S6 S2 S3 VCTRL_IN S4 S5 LF_OFFCHIP D0 D1 D2 D3 D4 D5 D6 D7 D8 D9 D10 D11 D12 D13 D14 D15
*+ D16 OUT1 S7 VDD_TEST DIV_OUT2 D27G D26G D17G D16G
*.ipin UP_INPUT
*.ipin DN_INPUT
*.opin UP_OUT
*.opin DN_OUT
*.ipin ITAIL
*.ipin ITAIL1
*.ipin VCTRL2
*.opin OUT
*.iopin OUTB
*.iopin VDD
*.iopin VSS
*.opin PRE_SCALAR
*.ipin F_IN
*.opin DIV_OUT
*.ipin S1
*.ipin S6
*.ipin S2
*.ipin S3
*.ipin VCTRL_IN
*.ipin S4
*.ipin S5
*.ipin LF_OFFCHIP
*.ipin D0
*.ipin D1
*.ipin D2
*.ipin D3
*.ipin D4
*.ipin D5
*.ipin D6
*.ipin D7
*.ipin D8
*.ipin D9
*.ipin D10
*.ipin D11
*.ipin D12
*.ipin D13
*.ipin D14
*.ipin D15
*.ipin D16
*.opin OUT1
*.ipin S7
*.iopin VDD_TEST
*.ipin DIV_OUT2
*.ipin D27G
*.ipin D26G
*.ipin D17G
*.ipin D16G
x1 net1 net4 VDD VSS net9 net10 PFD_ver_2
x2 VDD VSS net8 VCTRL_IN S4 VCTRL_OBV A_MUX
x7 VDD VSS VCTRL_OBV VCTRL2 net2 net3 VCO_1
x8 VDD ITAIL ITAIL1 net8 DN UP VSS CP
x9 net7 VSS cap_11p
x10 net7 VDD net5 Res_74k
x11 net5 VSS cap_240p
x3 VDD VSS net6 F_IN S1 net9 A_MUX
x4 VDD VSS OUT01 DIV_OUT2 S6 net10 A_MUX
x5 VDD VSS net4 DN_INPUT S3 DN A_MUX
x6 VDD VSS net1 UP_INPUT S2 UP A_MUX
x12 VDD VSS net7 LF_OFFCHIP S5 net8 A_MUX
x24 VDD VSS net3 F_IN S7 IN_DIV A_MUX
x16 VDD LD0 D6 Q01 D5 Q02 D4 D3 Q03 Q04 D2 D1 Q05 D0 Q06 Q07 IN_DIV VSS OUT01 P02 7b_divider
x17 VDD LD1 D17G Q11 D16G Q12 D16 D15 Q13 Q14 D14 D13 Q15 D12 Q16 Q17 OUT_D VSS OUT11 P12 7b_divider
x18 VDD LD2 D27G Q21 D26G Q22 D11 D10 Q23 Q24 D9 D8 Q25 D7 Q26 Q27 F_IN VSS net6 P22 7b_divider
x13 VSS VDD_TEST PRE_SCALAR net6 Tappered-Buffer_1
x14 VSS VDD_TEST UP_OUT UP Tappered-Buffer_1
x15 VSS VDD_TEST OUT net2 Tappered-Buffer_1
x19 VSS VDD_TEST OUTB net3 Tappered-Buffer_1
x20 VSS VDD_TEST OUT_D net3 Tappered-Buffer_1
x21 VSS VDD_TEST DIV_OUT OUT01 Tappered-Buffer_1
x22 VSS VDD_TEST OUT1 OUT11 Tappered-Buffer_1
x23 VSS VDD_TEST DN_OUT DN Tappered-Buffer_1
**.ends

* expanding   symbol:  PFD_ver_2.sym # of pins=6
** sym_path: /home/shahid/GF180Projects/Layout/Xschem/VCO/PLL_TOP_FINAL/PFD_ver_2.sym
** sch_path: /home/shahid/GF180Projects/Layout/Xschem/VCO/PLL_TOP_FINAL/PFD_ver_2.sch
.subckt PFD_ver_2 up down VDD VSS FIN FDIV
*.iopin VDD
*.iopin VSS
*.ipin FIN
*.ipin FDIV
*.opin up
*.opin down
XM1 A x1b net2 VSS nfet_03v3 L=0.5u W=1u nf=1 ad='int((nf+1)/2) * W/nf * 0.18u' as='int((nf+2)/2) * W/nf * 0.18u'
+ pd='2*int((nf+1)/2) * (W/nf + 0.18u)' ps='2*int((nf+2)/2) * (W/nf + 0.18u)' nrd='0.18u / W' nrs='0.18u / W'
+ sa=0 sb=0 sd=0 m=1
XM4 A FIN VDD VDD pfet_03v3 L=0.5u W=1u nf=1 ad='int((nf+1)/2) * W/nf * 0.18u' as='int((nf+2)/2) * W/nf * 0.18u'
+ pd='2*int((nf+1)/2) * (W/nf + 0.18u)' ps='2*int((nf+2)/2) * (W/nf + 0.18u)' nrd='0.18u / W' nrs='0.18u / W'
+ sa=0 sb=0 sd=0 m=1
XM5 x1 A VDD VDD pfet_03v3 L=0.5u W=5.5u nf=1 ad='int((nf+1)/2) * W/nf * 0.18u' as='int((nf+2)/2) * W/nf * 0.18u'
+ pd='2*int((nf+1)/2) * (W/nf + 0.18u)' ps='2*int((nf+2)/2) * (W/nf + 0.18u)' nrd='0.18u / W' nrs='0.18u / W'
+ sa=0 sb=0 sd=0 m=1
XM6 x1 x1 net3 VDD pfet_03v3 L=0.5u W=1u nf=1 ad='int((nf+1)/2) * W/nf * 0.18u' as='int((nf+2)/2) * W/nf * 0.18u'
+ pd='2*int((nf+1)/2) * (W/nf + 0.18u)' ps='2*int((nf+2)/2) * (W/nf + 0.18u)' nrd='0.18u / W' nrs='0.18u / W'
+ sa=0 sb=0 sd=0 m=1
XM7 net3 x2 VDD VDD pfet_03v3 L=0.5u W=1u nf=1 ad='int((nf+1)/2) * W/nf * 0.18u' as='int((nf+2)/2) * W/nf * 0.18u'
+ pd='2*int((nf+1)/2) * (W/nf + 0.18u)' ps='2*int((nf+2)/2) * (W/nf + 0.18u)' nrd='0.18u / W' nrs='0.18u / W'
+ sa=0 sb=0 sd=0 m=1
XM8 x3 x1 VDD VDD pfet_03v3 L=0.5u W=2.5u nf=1 ad='int((nf+1)/2) * W/nf * 0.18u' as='int((nf+2)/2) * W/nf * 0.18u'
+ pd='2*int((nf+1)/2) * (W/nf + 0.18u)' ps='2*int((nf+2)/2) * (W/nf + 0.18u)' nrd='0.18u / W' nrs='0.18u / W'
+ sa=0 sb=0 sd=0 m=1
XM9 net2 x2b VSS VSS nfet_03v3 L=0.5u W=1u nf=1 ad='int((nf+1)/2) * W/nf * 0.18u' as='int((nf+2)/2) * W/nf * 0.18u'
+ pd='2*int((nf+1)/2) * (W/nf + 0.18u)' ps='2*int((nf+2)/2) * (W/nf + 0.18u)' nrd='0.18u / W' nrs='0.18u / W'
+ sa=0 sb=0 sd=0 m=1
XM11 x1 FIN net1 VSS nfet_03v3 L=0.5u W=1u nf=1 ad='int((nf+1)/2) * W/nf * 0.18u' as='int((nf+2)/2) * W/nf * 0.18u'
+ pd='2*int((nf+1)/2) * (W/nf + 0.18u)' ps='2*int((nf+2)/2) * (W/nf + 0.18u)' nrd='0.18u / W' nrs='0.18u / W'
+ sa=0 sb=0 sd=0 m=1
XM12 net1 A VSS VSS nfet_03v3 L=0.5u W=1u nf=1 ad='int((nf+1)/2) * W/nf * 0.18u' as='int((nf+2)/2) * W/nf * 0.18u'
+ pd='2*int((nf+1)/2) * (W/nf + 0.18u)' ps='2*int((nf+2)/2) * (W/nf + 0.18u)' nrd='0.18u / W' nrs='0.18u / W'
+ sa=0 sb=0 sd=0 m=1
XM13 x3 x1 net4 VSS nfet_03v3 L=0.5u W=1.5u nf=1 ad='int((nf+1)/2) * W/nf * 0.18u' as='int((nf+2)/2) * W/nf * 0.18u'
+ pd='2*int((nf+1)/2) * (W/nf + 0.18u)' ps='2*int((nf+2)/2) * (W/nf + 0.18u)' nrd='0.18u / W' nrs='0.18u / W'
+ sa=0 sb=0 sd=0 m=1
XM14 net4 x1 VSS VSS nfet_03v3 L=0.5u W=1.5u nf=1 ad='int((nf+1)/2) * W/nf * 0.18u' as='int((nf+2)/2) * W/nf * 0.18u'
+ pd='2*int((nf+1)/2) * (W/nf + 0.18u)' ps='2*int((nf+2)/2) * (W/nf + 0.18u)' nrd='0.18u / W' nrs='0.18u / W'
+ sa=0 sb=0 sd=0 m=1
x1 VSS VDD x1b x1 GF_INV
XM15 B x1b net6 VSS nfet_03v3 L=0.5u W=1u nf=1 ad='int((nf+1)/2) * W/nf * 0.18u' as='int((nf+2)/2) * W/nf * 0.18u'
+ pd='2*int((nf+1)/2) * (W/nf + 0.18u)' ps='2*int((nf+2)/2) * (W/nf + 0.18u)' nrd='0.18u / W' nrs='0.18u / W'
+ sa=0 sb=0 sd=0 m=1
XM18 B FDIV VDD VDD pfet_03v3 L=0.5u W=1u nf=1 ad='int((nf+1)/2) * W/nf * 0.18u' as='int((nf+2)/2) * W/nf * 0.18u'
+ pd='2*int((nf+1)/2) * (W/nf + 0.18u)' ps='2*int((nf+2)/2) * (W/nf + 0.18u)' nrd='0.18u / W' nrs='0.18u / W'
+ sa=0 sb=0 sd=0 m=1
XM19 x2 B VDD VDD pfet_03v3 L=0.5u W=5.5u nf=1 ad='int((nf+1)/2) * W/nf * 0.18u' as='int((nf+2)/2) * W/nf * 0.18u'
+ pd='2*int((nf+1)/2) * (W/nf + 0.18u)' ps='2*int((nf+2)/2) * (W/nf + 0.18u)' nrd='0.18u / W' nrs='0.18u / W'
+ sa=0 sb=0 sd=0 m=1
XM20 x2 x2 net7 VDD pfet_03v3 L=0.5u W=1u nf=1 ad='int((nf+1)/2) * W/nf * 0.18u' as='int((nf+2)/2) * W/nf * 0.18u'
+ pd='2*int((nf+1)/2) * (W/nf + 0.18u)' ps='2*int((nf+2)/2) * (W/nf + 0.18u)' nrd='0.18u / W' nrs='0.18u / W'
+ sa=0 sb=0 sd=0 m=1
XM21 net7 x1 VDD VDD pfet_03v3 L=0.5u W=1u nf=1 ad='int((nf+1)/2) * W/nf * 0.18u' as='int((nf+2)/2) * W/nf * 0.18u'
+ pd='2*int((nf+1)/2) * (W/nf + 0.18u)' ps='2*int((nf+2)/2) * (W/nf + 0.18u)' nrd='0.18u / W' nrs='0.18u / W'
+ sa=0 sb=0 sd=0 m=1
XM22 net8 x2 VDD VDD pfet_03v3 L=0.5u W=2.5u nf=1 ad='int((nf+1)/2) * W/nf * 0.18u' as='int((nf+2)/2) * W/nf * 0.18u'
+ pd='2*int((nf+1)/2) * (W/nf + 0.18u)' ps='2*int((nf+2)/2) * (W/nf + 0.18u)' nrd='0.18u / W' nrs='0.18u / W'
+ sa=0 sb=0 sd=0 m=1
XM23 net6 x2b VSS VSS nfet_03v3 L=0.5u W=1u nf=1 ad='int((nf+1)/2) * W/nf * 0.18u' as='int((nf+2)/2) * W/nf * 0.18u'
+ pd='2*int((nf+1)/2) * (W/nf + 0.18u)' ps='2*int((nf+2)/2) * (W/nf + 0.18u)' nrd='0.18u / W' nrs='0.18u / W'
+ sa=0 sb=0 sd=0 m=1
XM25 x2 FDIV net5 VSS nfet_03v3 L=0.5u W=1u nf=1 ad='int((nf+1)/2) * W/nf * 0.18u' as='int((nf+2)/2) * W/nf * 0.18u'
+ pd='2*int((nf+1)/2) * (W/nf + 0.18u)' ps='2*int((nf+2)/2) * (W/nf + 0.18u)' nrd='0.18u / W' nrs='0.18u / W'
+ sa=0 sb=0 sd=0 m=1
XM26 net5 B VSS VSS nfet_03v3 L=0.5u W=1u nf=1 ad='int((nf+1)/2) * W/nf * 0.18u' as='int((nf+2)/2) * W/nf * 0.18u'
+ pd='2*int((nf+1)/2) * (W/nf + 0.18u)' ps='2*int((nf+2)/2) * (W/nf + 0.18u)' nrd='0.18u / W' nrs='0.18u / W'
+ sa=0 sb=0 sd=0 m=1
XM27 net8 x2 net9 VSS nfet_03v3 L=0.5u W=1.5u nf=1 ad='int((nf+1)/2) * W/nf * 0.18u' as='int((nf+2)/2) * W/nf * 0.18u'
+ pd='2*int((nf+1)/2) * (W/nf + 0.18u)' ps='2*int((nf+2)/2) * (W/nf + 0.18u)' nrd='0.18u / W' nrs='0.18u / W'
+ sa=0 sb=0 sd=0 m=1
XM28 net9 x2 VSS VSS nfet_03v3 L=0.5u W=1.5u nf=1 ad='int((nf+1)/2) * W/nf * 0.18u' as='int((nf+2)/2) * W/nf * 0.18u'
+ pd='2*int((nf+1)/2) * (W/nf + 0.18u)' ps='2*int((nf+2)/2) * (W/nf + 0.18u)' nrd='0.18u / W' nrs='0.18u / W'
+ sa=0 sb=0 sd=0 m=1
x2 VSS VDD x2b x2 GF_INV
XM29 net8 x1b VSS VSS nfet_03v3 L=0.5u W=1.5u nf=1 ad='int((nf+1)/2) * W/nf * 0.18u' as='int((nf+2)/2) * W/nf * 0.18u'
+ pd='2*int((nf+1)/2) * (W/nf + 0.18u)' ps='2*int((nf+2)/2) * (W/nf + 0.18u)' nrd='0.18u / W' nrs='0.18u / W'
+ sa=0 sb=0 sd=0 m=1
XM30 x3 x2b VSS VSS nfet_03v3 L=0.5u W=1.5u nf=1 ad='int((nf+1)/2) * W/nf * 0.18u' as='int((nf+2)/2) * W/nf * 0.18u'
+ pd='2*int((nf+1)/2) * (W/nf + 0.18u)' ps='2*int((nf+2)/2) * (W/nf + 0.18u)' nrd='0.18u / W' nrs='0.18u / W'
+ sa=0 sb=0 sd=0 m=1
x3 VDD x3 up VSS Buffer_V_2
x4 VDD net8 down VSS Buffer_V_2
.ends


* expanding   symbol:  A_MUX.sym # of pins=6
** sym_path: /home/shahid/GF180Projects/Layout/Xschem/VCO/PLL_TOP_FINAL/A_MUX.sym
** sch_path: /home/shahid/GF180Projects/Layout/Xschem/VCO/PLL_TOP_FINAL/A_MUX.sch
.subckt A_MUX VDD VSS IN1 IN2 SEL OUT
*.iopin VSS
*.ipin IN1
*.ipin IN2
*.ipin SEL
*.opin OUT
*.iopin VDD
x1 OUT VDD VSS IN2 SEL TR_Gate
x2 OUT VDD VSS IN1 net1 TR_Gate
x3 VSS VDD net1 SEL INV_1
.ends


* expanding   symbol:  VCO_1.sym # of pins=6
** sym_path: /home/shahid/GF180Projects/Layout/Xschem/VCO/PLL_TOP_FINAL/VCO_1.sym
** sch_path: /home/shahid/GF180Projects/Layout/Xschem/VCO/PLL_TOP_FINAL/VCO_1.sch
.subckt VCO_1 VDD VSS VCTRL VCTRL2 OUT OUTB
*.opin OUT
*.iopin VDD
*.iopin VSS
*.opin OUTB
*.ipin VCTRL
*.ipin VCTRL2
x1 VDD VSS net5 net6 VCTRL VCTRL2 net1 net2 DelayCell_1
x2 VDD VSS net7 net8 VCTRL VCTRL2 out1 outb1 DelayCell_1
x3 VSS VDD net7 net1 INV_1
x4 VSS VDD net8 net2 INV_1
x5 VSS VDD net4 out1 INV_1
x6 VSS VDD net5 net4 INV_1
x7 VSS VDD net3 outb1 INV_1
x8 VSS VDD net6 net3 INV_1
x9 VDD VSS net6 OUTB OUT OUTB D-FF
.ends


* expanding   symbol:  CP.sym # of pins=7
** sym_path: /home/shahid/GF180Projects/Layout/Xschem/VCO/PLL_TOP_FINAL/CP.sym
** sch_path: /home/shahid/GF180Projects/Layout/Xschem/VCO/PLL_TOP_FINAL/CP.sch
.subckt CP VDD ITAIL ITAIL1 VCTRL UP down VSS
*.ipin UP
*.ipin down
*.iopin VCTRL
*.iopin VDD
*.iopin VSS
*.iopin ITAIL1
*.iopin ITAIL
XM1 net1 net2 VDD VDD pfet_03v3 L=0.56u W=2.8u nf=1 ad='int((nf+1)/2) * W/nf * 0.18u' as='int((nf+2)/2) * W/nf * 0.18u'
+ pd='2*int((nf+1)/2) * (W/nf + 0.18u)' ps='2*int((nf+2)/2) * (W/nf + 0.18u)' nrd='0.18u / W' nrs='0.18u / W'
+ sa=0 sb=0 sd=0 m=1
XM3 VCTRL ITAIL net1 VDD pfet_03v3 L=0.56u W=2.24u nf=1 ad='int((nf+1)/2) * W/nf * 0.18u' as='int((nf+2)/2) * W/nf * 0.18u'
+ pd='2*int((nf+1)/2) * (W/nf + 0.18u)' ps='2*int((nf+2)/2) * (W/nf + 0.18u)' nrd='0.18u / W' nrs='0.18u / W'
+ sa=0 sb=0 sd=0 m=1
XM2 ITAIL ITAIL VDD VDD pfet_03v3 L=0.56u W=2.24u nf=1 ad='int((nf+1)/2) * W/nf * 0.18u' as='int((nf+2)/2) * W/nf * 0.18u'
+ pd='2*int((nf+1)/2) * (W/nf + 0.18u)' ps='2*int((nf+2)/2) * (W/nf + 0.18u)' nrd='0.18u / W' nrs='0.18u / W'
+ sa=0 sb=0 sd=0 m=1
XM6 ITAIL1 ITAIL1 VSS VSS nfet_03v3 L=0.56u W=1.12u nf=1 ad='int((nf+1)/2) * W/nf * 0.18u' as='int((nf+2)/2) * W/nf * 0.18u'
+ pd='2*int((nf+1)/2) * (W/nf + 0.18u)' ps='2*int((nf+2)/2) * (W/nf + 0.18u)' nrd='0.18u / W' nrs='0.18u / W'
+ sa=0 sb=0 sd=0 m=1
XM5 VCTRL ITAIL1 net3 VSS nfet_03v3 L=0.56u W=1.12u nf=1 ad='int((nf+1)/2) * W/nf * 0.18u' as='int((nf+2)/2) * W/nf * 0.18u'
+ pd='2*int((nf+1)/2) * (W/nf + 0.18u)' ps='2*int((nf+2)/2) * (W/nf + 0.18u)' nrd='0.18u / W' nrs='0.18u / W'
+ sa=0 sb=0 sd=0 m=1
XM4 net3 down VSS VSS nfet_03v3 L=0.56u W=1.4u nf=1 ad='int((nf+1)/2) * W/nf * 0.18u' as='int((nf+2)/2) * W/nf * 0.18u'
+ pd='2*int((nf+1)/2) * (W/nf + 0.18u)' ps='2*int((nf+2)/2) * (W/nf + 0.18u)' nrd='0.18u / W' nrs='0.18u / W'
+ sa=0 sb=0 sd=0 m=1
XM7 net2 UP VSS VSS nfet_03v3 L=0.56u W=0.56u nf=1 ad='int((nf+1)/2) * W/nf * 0.18u' as='int((nf+2)/2) * W/nf * 0.18u'
+ pd='2*int((nf+1)/2) * (W/nf + 0.18u)' ps='2*int((nf+2)/2) * (W/nf + 0.18u)' nrd='0.18u / W' nrs='0.18u / W'
+ sa=0 sb=0 sd=0 m=1
XM8 net2 UP VDD VDD pfet_03v3 L=0.56u W=1.12u nf=1 ad='int((nf+1)/2) * W/nf * 0.18u' as='int((nf+2)/2) * W/nf * 0.18u'
+ pd='2*int((nf+1)/2) * (W/nf + 0.18u)' ps='2*int((nf+2)/2) * (W/nf + 0.18u)' nrd='0.18u / W' nrs='0.18u / W'
+ sa=0 sb=0 sd=0 m=1
.ends


* expanding   symbol:  cap_11p.sym # of pins=2
** sym_path: /home/shahid/GF180Projects/Layout/Xschem/VCO/PLL_TOP_FINAL/cap_11p.sym
** sch_path: /home/shahid/GF180Projects/Layout/Xschem/VCO/PLL_TOP_FINAL/cap_11p.sch
.subckt cap_11p P M
*.iopin P
*.iopin M
XC1 P M cap_mim_2f0_m4m5_noshield c_width=30e-6 c_length=30e-6 m=6
.ends


* expanding   symbol:  Res_74k.sym # of pins=3
** sym_path: /home/shahid/GF180Projects/Layout/Xschem/VCO/PLL_TOP_FINAL/Res_74k.sym
** sch_path: /home/shahid/GF180Projects/Layout/Xschem/VCO/PLL_TOP_FINAL/Res_74k.sch
.subckt Res_74k P VDD M
*.iopin P
*.iopin VDD
*.iopin M
XR1 M P VDD ppolyf_u r_width=1.1e-6 r_length=195e-6 m=1
XR2 P P VDD ppolyf_u r_width=48.4e-6 r_length=2.6e-6 m=1
.ends


* expanding   symbol:  cap_240p.sym # of pins=2
** sym_path: /home/shahid/GF180Projects/Layout/Xschem/VCO/PLL_TOP_FINAL/cap_240p.sym
** sch_path: /home/shahid/GF180Projects/Layout/Xschem/VCO/PLL_TOP_FINAL/cap_240p.sch
.subckt cap_240p P M
*.iopin P
*.iopin M
XC1 P M cap_mim_2f0_m4m5_noshield c_width=31e-6 c_length=29e-6 m=132
.ends


* expanding   symbol:  7b_divider.sym # of pins=20
** sym_path: /home/shahid/GF180Projects/Layout/Xschem/VCO/PLL_TOP_FINAL/7b_divider.sym
** sch_path: /home/shahid/GF180Projects/Layout/Xschem/VCO/PLL_TOP_FINAL/7b_divider.sch
.subckt 7b_divider VDD LD D2_7 Q1 D2_6 Q2 D2_5 D2_4 Q3 Q4 D2_3 D2_2 Q5 D2_1 Q6 Q7 CLK VSS OUT1 P2
*.iopin VDD
*.iopin VSS
*.ipin D2_1
*.ipin CLK
*.ipin D2_2
*.ipin D2_3
*.ipin D2_4
*.ipin D2_5
*.ipin D2_6
*.ipin D2_7
*.opin LD
*.opin Q1
*.opin Q2
*.opin Q3
*.opin Q4
*.opin Q5
*.opin Q6
*.opin Q7
*.opin P2
*.opin OUT1
x4 VDD Q2 b D2_3 VSS XNOR
x5 VDD Q1 a D2_2 VSS XNOR
x6 VDD Q3 c D2_4 VSS XNOR
x7 VDD net1 a b c VSS 3_inp_AND
x2 VDD Q4 d D2_5 VSS XNOR
x3 VDD Q5 e D2_6 VSS XNOR
x9 VDD Q6 f D2_7 VSS XNOR
x10 VDD Q7 g D2_1 VSS XNOR
x15 VDD net4 net1 net2 net3 VSS 3_inp_AND
x16 VDD P0 P2 net5 VSS OR
x17 net5 VDD OUT3 VSS div_by_2
x1 LD VDD Q6 Q4 Q2 Q5 Q1 Q3 Q7 D2_7 D2_6 D2_3 D2_5 D2_2 D2_4 D2_1 CLK VSS 7b_counter_new
x11 VDD net2 d e VSS AND
x12 VDD net3 f g VSS AND
x8 CLK VDD LD P0 VSS DFF
x14 VDD Q2 j2 D2_3 VSS XNOR
x18 VDD Q1 j1 D2_2 VSS XNOR
x19 VDD Q3 j3 D2_4 VSS XNOR
x20 VDD Q4 j4 D2_5 VSS XNOR
x21 VDD Q5 j5 D2_6 VSS XNOR
x22 VDD Q6 j6 D2_7 VSS XNOR
x23 VDD Q7 j7 D2_1B VSS XNOR
x24 VDD D2_1 D2_1B VSS inverter
x25 VDD net6 j1 j2 j3 VSS 3_inp_AND
x26 VDD net9 net6 net7 net8 VSS 3_inp_AND
x27 VDD net7 j4 j5 VSS AND
x28 VDD net8 j6 j7 VSS AND
x29 CLK VDD net9 P3 VSS ned_DFF
x30 VDD P0 P3 net10 VSS OR
x31 net10 VDD OUT2 VSS div_by_2
x32 VDD D2_1 OUT3 OUT1 VSS OUT2 MUX
x13 CLK VDD net4 P2 VSS DFF
.ends


* expanding   symbol:  Tappered-Buffer_1.sym # of pins=4
** sym_path: /home/shahid/GF180Projects/Layout/Xschem/VCO/PLL_TOP_FINAL/Tappered-Buffer_1.sym
** sch_path: /home/shahid/GF180Projects/Layout/Xschem/VCO/PLL_TOP_FINAL/Tappered-Buffer_1.sch
.subckt Tappered-Buffer_1 VSS VDD OUT IN
*.iopin VDD
*.iopin VSS
*.ipin IN
*.opin OUT
XM3 net1 IN VSS VSS nfet_03v3 L=0.5u W=5.6u nf=1 ad='int((nf+1)/2) * W/nf * 0.18u' as='int((nf+2)/2) * W/nf * 0.18u'
+ pd='2*int((nf+1)/2) * (W/nf + 0.18u)' ps='2*int((nf+2)/2) * (W/nf + 0.18u)' nrd='0.18u / W' nrs='0.18u / W'
+ sa=0 sb=0 sd=0 m=1
XM4 net1 IN VDD VDD pfet_03v3 L=0.5u W=11.2u nf=1 ad='int((nf+1)/2) * W/nf * 0.18u' as='int((nf+2)/2) * W/nf * 0.18u'
+ pd='2*int((nf+1)/2) * (W/nf + 0.18u)' ps='2*int((nf+2)/2) * (W/nf + 0.18u)' nrd='0.18u / W' nrs='0.18u / W'
+ sa=0 sb=0 sd=0 m=1
XM1 net2 net1 VSS VSS nfet_03v3 L=0.5u W=22.4u nf=1 ad='int((nf+1)/2) * W/nf * 0.18u' as='int((nf+2)/2) * W/nf * 0.18u'
+ pd='2*int((nf+1)/2) * (W/nf + 0.18u)' ps='2*int((nf+2)/2) * (W/nf + 0.18u)' nrd='0.18u / W' nrs='0.18u / W'
+ sa=0 sb=0 sd=0 m=1
XM2 net2 net1 VDD VDD pfet_03v3 L=0.5u W=44.8u nf=1 ad='int((nf+1)/2) * W/nf * 0.18u' as='int((nf+2)/2) * W/nf * 0.18u'
+ pd='2*int((nf+1)/2) * (W/nf + 0.18u)' ps='2*int((nf+2)/2) * (W/nf + 0.18u)' nrd='0.18u / W' nrs='0.18u / W'
+ sa=0 sb=0 sd=0 m=1
XM5 OUT net2 VSS VSS nfet_03v3 L=0.5u W=89.6u nf=1 ad='int((nf+1)/2) * W/nf * 0.18u' as='int((nf+2)/2) * W/nf * 0.18u'
+ pd='2*int((nf+1)/2) * (W/nf + 0.18u)' ps='2*int((nf+2)/2) * (W/nf + 0.18u)' nrd='0.18u / W' nrs='0.18u / W'
+ sa=0 sb=0 sd=0 m=1
XM6 OUT net2 VDD VDD pfet_03v3 L=0.5u W=89.6u nf=1 ad='int((nf+1)/2) * W/nf * 0.18u' as='int((nf+2)/2) * W/nf * 0.18u'
+ pd='2*int((nf+1)/2) * (W/nf + 0.18u)' ps='2*int((nf+2)/2) * (W/nf + 0.18u)' nrd='0.18u / W' nrs='0.18u / W'
+ sa=0 sb=0 sd=0 m=1
XM7 OUT net2 VDD VDD pfet_03v3 L=0.5u W=89.6u nf=1 ad='int((nf+1)/2) * W/nf * 0.18u' as='int((nf+2)/2) * W/nf * 0.18u'
+ pd='2*int((nf+1)/2) * (W/nf + 0.18u)' ps='2*int((nf+2)/2) * (W/nf + 0.18u)' nrd='0.18u / W' nrs='0.18u / W'
+ sa=0 sb=0 sd=0 m=1
XM8 VSS VSS VSS VSS nfet_03v3 L=0.5u W=39.2u nf=1 ad='int((nf+1)/2) * W/nf * 0.18u' as='int((nf+2)/2) * W/nf * 0.18u'
+ pd='2*int((nf+1)/2) * (W/nf + 0.18u)' ps='2*int((nf+2)/2) * (W/nf + 0.18u)' nrd='0.18u / W' nrs='0.18u / W'
+ sa=0 sb=0 sd=0 m=1
.ends


* expanding   symbol:  /home/shahid/GF180Projects/GF_INV/Xschem/GF_INV.sym # of pins=4
** sym_path: /home/shahid/GF180Projects/GF_INV/Xschem/GF_INV.sym
** sch_path: /home/shahid/GF180Projects/GF_INV/Xschem/GF_INV.sch
.subckt GF_INV VSS VDD OUT IN
*.iopin VDD
*.iopin VSS
*.ipin IN
*.opin OUT
XM1 OUT IN VSS VSS nfet_03v3 L=0.5u W=0.5u nf=1 ad='int((nf+1)/2) * W/nf * 0.18u' as='int((nf+2)/2) * W/nf * 0.18u'
+ pd='2*int((nf+1)/2) * (W/nf + 0.18u)' ps='2*int((nf+2)/2) * (W/nf + 0.18u)' nrd='0.18u / W' nrs='0.18u / W'
+ sa=0 sb=0 sd=0 m=1
XM2 OUT IN VDD VDD pfet_03v3 L=0.5u W=1u nf=1 ad='int((nf+1)/2) * W/nf * 0.18u' as='int((nf+2)/2) * W/nf * 0.18u'
+ pd='2*int((nf+1)/2) * (W/nf + 0.18u)' ps='2*int((nf+2)/2) * (W/nf + 0.18u)' nrd='0.18u / W' nrs='0.18u / W'
+ sa=0 sb=0 sd=0 m=1
.ends


* expanding   symbol:  Buffer_V_2.sym # of pins=4
** sym_path: /home/shahid/GF180Projects/Layout/Xschem/VCO/PLL_TOP_FINAL/Buffer_V_2.sym
** sch_path: /home/shahid/GF180Projects/Layout/Xschem/VCO/PLL_TOP_FINAL/Buffer_V_2.sch
.subckt Buffer_V_2 VDD IN out VSS
*.iopin VDD
*.iopin VSS
*.ipin IN
*.ipin out
XM1 net1 IN VSS VSS nfet_03v3 L=0.5u W=0.5u nf=1 ad='int((nf+1)/2) * W/nf * 0.18u' as='int((nf+2)/2) * W/nf * 0.18u'
+ pd='2*int((nf+1)/2) * (W/nf + 0.18u)' ps='2*int((nf+2)/2) * (W/nf + 0.18u)' nrd='0.18u / W' nrs='0.18u / W'
+ sa=0 sb=0 sd=0 m=1
XM2 net1 IN VDD VDD pfet_03v3 L=0.5u W=1u nf=1 ad='int((nf+1)/2) * W/nf * 0.18u' as='int((nf+2)/2) * W/nf * 0.18u'
+ pd='2*int((nf+1)/2) * (W/nf + 0.18u)' ps='2*int((nf+2)/2) * (W/nf + 0.18u)' nrd='0.18u / W' nrs='0.18u / W'
+ sa=0 sb=0 sd=0 m=1
XM3 out net1 VSS VSS nfet_03v3 L=0.5u W=0.5u nf=1 ad='int((nf+1)/2) * W/nf * 0.18u' as='int((nf+2)/2) * W/nf * 0.18u'
+ pd='2*int((nf+1)/2) * (W/nf + 0.18u)' ps='2*int((nf+2)/2) * (W/nf + 0.18u)' nrd='0.18u / W' nrs='0.18u / W'
+ sa=0 sb=0 sd=0 m=1
XM4 out net1 VDD VDD pfet_03v3 L=0.5u W=1u nf=1 ad='int((nf+1)/2) * W/nf * 0.18u' as='int((nf+2)/2) * W/nf * 0.18u'
+ pd='2*int((nf+1)/2) * (W/nf + 0.18u)' ps='2*int((nf+2)/2) * (W/nf + 0.18u)' nrd='0.18u / W' nrs='0.18u / W'
+ sa=0 sb=0 sd=0 m=1
.ends


* expanding   symbol:  TR_Gate.sym # of pins=5
** sym_path: /home/shahid/GF180Projects/Layout/Xschem/VCO/PLL_TOP_FINAL/TR_Gate.sym
** sch_path: /home/shahid/GF180Projects/Layout/Xschem/VCO/PLL_TOP_FINAL/TR_Gate.sch
.subckt TR_Gate OUT VDD VSS IN CLK
*.iopin VDD
*.iopin VSS
*.ipin IN
*.opin OUT
*.ipin CLK
XM1 IN net1 OUT VDD pfet_03v3 L=0.5u W=3.36u nf=1 ad='int((nf+1)/2) * W/nf * 0.18u' as='int((nf+2)/2) * W/nf * 0.18u'
+ pd='2*int((nf+1)/2) * (W/nf + 0.18u)' ps='2*int((nf+2)/2) * (W/nf + 0.18u)' nrd='0.18u / W' nrs='0.18u / W'
+ sa=0 sb=0 sd=0 m=1
XM2 IN CLK OUT VSS nfet_03v3 L=0.5u W=3.36u nf=1 ad='int((nf+1)/2) * W/nf * 0.18u' as='int((nf+2)/2) * W/nf * 0.18u'
+ pd='2*int((nf+1)/2) * (W/nf + 0.18u)' ps='2*int((nf+2)/2) * (W/nf + 0.18u)' nrd='0.18u / W' nrs='0.18u / W'
+ sa=0 sb=0 sd=0 m=1
XM3 net1 CLK VDD VDD pfet_03v3 L=0.5u W=3.36u nf=1 ad='int((nf+1)/2) * W/nf * 0.18u' as='int((nf+2)/2) * W/nf * 0.18u'
+ pd='2*int((nf+1)/2) * (W/nf + 0.18u)' ps='2*int((nf+2)/2) * (W/nf + 0.18u)' nrd='0.18u / W' nrs='0.18u / W'
+ sa=0 sb=0 sd=0 m=1
XM4 net1 CLK VSS VSS nfet_03v3 L=0.5u W=1.68u nf=1 ad='int((nf+1)/2) * W/nf * 0.18u' as='int((nf+2)/2) * W/nf * 0.18u'
+ pd='2*int((nf+1)/2) * (W/nf + 0.18u)' ps='2*int((nf+2)/2) * (W/nf + 0.18u)' nrd='0.18u / W' nrs='0.18u / W'
+ sa=0 sb=0 sd=0 m=1
.ends


* expanding   symbol:  INV_1.sym # of pins=4
** sym_path: /home/shahid/GF180Projects/Layout/Xschem/VCO/PLL_TOP_FINAL/INV_1.sym
** sch_path: /home/shahid/GF180Projects/Layout/Xschem/VCO/PLL_TOP_FINAL/INV_1.sch
.subckt INV_1 VSS VDD OUT IN
*.iopin VDD
*.iopin VSS
*.ipin IN
*.opin OUT
XM1 OUT IN VSS VSS nfet_03v3 L=0.5u W=2u nf=1 ad='int((nf+1)/2) * W/nf * 0.18u' as='int((nf+2)/2) * W/nf * 0.18u'
+ pd='2*int((nf+1)/2) * (W/nf + 0.18u)' ps='2*int((nf+2)/2) * (W/nf + 0.18u)' nrd='0.18u / W' nrs='0.18u / W'
+ sa=0 sb=0 sd=0 m=1
XM2 OUT IN VDD VDD pfet_03v3 L=0.5u W=4u nf=1 ad='int((nf+1)/2) * W/nf * 0.18u' as='int((nf+2)/2) * W/nf * 0.18u'
+ pd='2*int((nf+1)/2) * (W/nf + 0.18u)' ps='2*int((nf+2)/2) * (W/nf + 0.18u)' nrd='0.18u / W' nrs='0.18u / W'
+ sa=0 sb=0 sd=0 m=1
.ends


* expanding   symbol:  DelayCell_1.sym # of pins=8
** sym_path: /home/shahid/GF180Projects/Layout/Xschem/VCO/PLL_TOP_FINAL/DelayCell_1.sym
** sch_path: /home/shahid/GF180Projects/Layout/Xschem/VCO/PLL_TOP_FINAL/DelayCell_1.sch
.subckt DelayCell_1 VDD VSS IN INB VCTRL VCTRL2 OUT OUTB
*.iopin VDD
*.iopin VSS
*.ipin IN
*.ipin INB
*.ipin VCTRL
*.ipin VCTRL2
*.opin OUT
*.opin OUTB
XM2 OUTB OUT VDD VDD pfet_03v3 L=0.84u W=8u nf=1 ad='int((nf+1)/2) * W/nf * 0.18u' as='int((nf+2)/2) * W/nf * 0.18u'
+ pd='2*int((nf+1)/2) * (W/nf + 0.18u)' ps='2*int((nf+2)/2) * (W/nf + 0.18u)' nrd='0.18u / W' nrs='0.18u / W'
+ sa=0 sb=0 sd=0 m=1
XM4 OUT OUTB VDD VDD pfet_03v3 L=0.84u W=8u nf=1 ad='int((nf+1)/2) * W/nf * 0.18u' as='int((nf+2)/2) * W/nf * 0.18u'
+ pd='2*int((nf+1)/2) * (W/nf + 0.18u)' ps='2*int((nf+2)/2) * (W/nf + 0.18u)' nrd='0.18u / W' nrs='0.18u / W'
+ sa=0 sb=0 sd=0 m=1
XM5 OUTB VCTRL VDD VDD pfet_03v3 L=0.84u W=2.5u nf=1 ad='int((nf+1)/2) * W/nf * 0.18u' as='int((nf+2)/2) * W/nf * 0.18u'
+ pd='2*int((nf+1)/2) * (W/nf + 0.18u)' ps='2*int((nf+2)/2) * (W/nf + 0.18u)' nrd='0.18u / W' nrs='0.18u / W'
+ sa=0 sb=0 sd=0 m=1
XM6 OUT VCTRL VDD VDD pfet_03v3 L=0.84u W=2.5u nf=1 ad='int((nf+1)/2) * W/nf * 0.18u' as='int((nf+2)/2) * W/nf * 0.18u'
+ pd='2*int((nf+1)/2) * (W/nf + 0.18u)' ps='2*int((nf+2)/2) * (W/nf + 0.18u)' nrd='0.18u / W' nrs='0.18u / W'
+ sa=0 sb=0 sd=0 m=1
XM7 net1 VCTRL2 VSS VSS nfet_03v3 L=0.84u W=20u nf=1 ad='int((nf+1)/2) * W/nf * 0.18u' as='int((nf+2)/2) * W/nf * 0.18u'
+ pd='2*int((nf+1)/2) * (W/nf + 0.18u)' ps='2*int((nf+2)/2) * (W/nf + 0.18u)' nrd='0.18u / W' nrs='0.18u / W'
+ sa=0 sb=0 sd=0 m=1
XM8 OUT IN net1 VSS nfet_03v3 L=0.84u W=5u nf=1 ad='int((nf+1)/2) * W/nf * 0.18u' as='int((nf+2)/2) * W/nf * 0.18u'
+ pd='2*int((nf+1)/2) * (W/nf + 0.18u)' ps='2*int((nf+2)/2) * (W/nf + 0.18u)' nrd='0.18u / W' nrs='0.18u / W'
+ sa=0 sb=0 sd=0 m=1
XM9 OUTB INB net1 VSS nfet_03v3 L=0.84u W=5u nf=1 ad='int((nf+1)/2) * W/nf * 0.18u' as='int((nf+2)/2) * W/nf * 0.18u'
+ pd='2*int((nf+1)/2) * (W/nf + 0.18u)' ps='2*int((nf+2)/2) * (W/nf + 0.18u)' nrd='0.18u / W' nrs='0.18u / W'
+ sa=0 sb=0 sd=0 m=1
XM1 VSS VSS VSS VSS nfet_03v3 L=0.84u W=10u nf=1 ad='int((nf+1)/2) * W/nf * 0.18u' as='int((nf+2)/2) * W/nf * 0.18u'
+ pd='2*int((nf+1)/2) * (W/nf + 0.18u)' ps='2*int((nf+2)/2) * (W/nf + 0.18u)' nrd='0.18u / W' nrs='0.18u / W'
+ sa=0 sb=0 sd=0 m=1
XM3 VDD VDD VDD VDD pfet_03v3 L=0.84u W=6u nf=1 ad='int((nf+1)/2) * W/nf * 0.18u' as='int((nf+2)/2) * W/nf * 0.18u'
+ pd='2*int((nf+1)/2) * (W/nf + 0.18u)' ps='2*int((nf+2)/2) * (W/nf + 0.18u)' nrd='0.18u / W' nrs='0.18u / W'
+ sa=0 sb=0 sd=0 m=1
.ends


* expanding   symbol:  D-FF.sym # of pins=6
** sym_path: /home/shahid/GF180Projects/Layout/Xschem/VCO/PLL_TOP_FINAL/D-FF.sym
** sch_path: /home/shahid/GF180Projects/Layout/Xschem/VCO/PLL_TOP_FINAL/D-FF.sch
.subckt D-FF VDD VSS CLK D Q Q-
*.iopin VDD
*.iopin VSS
*.ipin CLK
*.ipin D
*.opin Q
*.opin Q-
x1 net1 VDD VSS D CLKB TR_Gate
x2 net1 VDD VSS net3 CLK TR_Gate
x3 VSS VDD net2 net1 INV
x4 VSS VDD net3 net2 INV
x5 net5 VDD VSS net2 CLK TR_Gate
x6 net5 VDD VSS net4 CLKB TR_Gate
x8 VSS VDD net4 Q INV
x9 VSS VDD CLKB CLK INV
x10 VSS VDD Q- Q INV
XM1 Q net5 VSS VSS nfet_03v3 L=0.5u W=2u nf=1 ad='int((nf+1)/2) * W/nf * 0.18u' as='int((nf+2)/2) * W/nf * 0.18u'
+ pd='2*int((nf+1)/2) * (W/nf + 0.18u)' ps='2*int((nf+2)/2) * (W/nf + 0.18u)' nrd='0.18u / W' nrs='0.18u / W'
+ sa=0 sb=0 sd=0 m=1
XM2 Q net5 VDD VDD pfet_03v3 L=0.5u W=4u nf=1 ad='int((nf+1)/2) * W/nf * 0.18u' as='int((nf+2)/2) * W/nf * 0.18u'
+ pd='2*int((nf+1)/2) * (W/nf + 0.18u)' ps='2*int((nf+2)/2) * (W/nf + 0.18u)' nrd='0.18u / W' nrs='0.18u / W'
+ sa=0 sb=0 sd=0 m=1
.ends


* expanding   symbol:  XNOR.sym # of pins=5
** sym_path: /home/shahid/GF180Projects/Layout/Xschem/VCO/PLL_TOP_FINAL/XNOR.sym
** sch_path: /home/shahid/GF180Projects/Layout/Xschem/VCO/PLL_TOP_FINAL/XNOR.sch
.subckt XNOR VDD A OUT B VSS
*.iopin VDD
*.iopin VSS
*.ipin A
*.ipin B
*.opin OUT
XM1 OUT A net3 VSS nfet_03v3 L=0.56u W=1.12u nf=1 ad='int((nf+1)/2) * W/nf * 0.18u' as='int((nf+2)/2) * W/nf * 0.18u'
+ pd='2*int((nf+1)/2) * (W/nf + 0.18u)' ps='2*int((nf+2)/2) * (W/nf + 0.18u)' nrd='0.18u / W' nrs='0.18u / W'
+ sa=0 sb=0 sd=0 m=1
XM2 net1 A VDD VDD pfet_03v3 L=0.56u W=2.24u nf=1 ad='int((nf+1)/2) * W/nf * 0.18u' as='int((nf+2)/2) * W/nf * 0.18u'
+ pd='2*int((nf+1)/2) * (W/nf + 0.18u)' ps='2*int((nf+2)/2) * (W/nf + 0.18u)' nrd='0.18u / W' nrs='0.18u / W'
+ sa=0 sb=0 sd=0 m=1
XM3 net2 A_bar VDD VDD pfet_03v3 L=0.56u W=2.24u nf=1 ad='int((nf+1)/2) * W/nf * 0.18u' as='int((nf+2)/2) * W/nf * 0.18u'
+ pd='2*int((nf+1)/2) * (W/nf + 0.18u)' ps='2*int((nf+2)/2) * (W/nf + 0.18u)' nrd='0.18u / W' nrs='0.18u / W'
+ sa=0 sb=0 sd=0 m=1
XM4 OUT B net1 VDD pfet_03v3 L=0.56u W=2.24u nf=1 ad='int((nf+1)/2) * W/nf * 0.18u' as='int((nf+2)/2) * W/nf * 0.18u'
+ pd='2*int((nf+1)/2) * (W/nf + 0.18u)' ps='2*int((nf+2)/2) * (W/nf + 0.18u)' nrd='0.18u / W' nrs='0.18u / W'
+ sa=0 sb=0 sd=0 m=1
XM5 OUT B_bar net2 VDD pfet_03v3 L=0.56u W=2.24u nf=1 ad='int((nf+1)/2) * W/nf * 0.18u' as='int((nf+2)/2) * W/nf * 0.18u'
+ pd='2*int((nf+1)/2) * (W/nf + 0.18u)' ps='2*int((nf+2)/2) * (W/nf + 0.18u)' nrd='0.18u / W' nrs='0.18u / W'
+ sa=0 sb=0 sd=0 m=1
XM6 OUT A_bar net4 VSS nfet_03v3 L=0.56u W=1.12u nf=1 ad='int((nf+1)/2) * W/nf * 0.18u' as='int((nf+2)/2) * W/nf * 0.18u'
+ pd='2*int((nf+1)/2) * (W/nf + 0.18u)' ps='2*int((nf+2)/2) * (W/nf + 0.18u)' nrd='0.18u / W' nrs='0.18u / W'
+ sa=0 sb=0 sd=0 m=1
XM7 net3 B_bar VSS VSS nfet_03v3 L=0.56u W=1.12u nf=1 ad='int((nf+1)/2) * W/nf * 0.18u' as='int((nf+2)/2) * W/nf * 0.18u'
+ pd='2*int((nf+1)/2) * (W/nf + 0.18u)' ps='2*int((nf+2)/2) * (W/nf + 0.18u)' nrd='0.18u / W' nrs='0.18u / W'
+ sa=0 sb=0 sd=0 m=1
XM8 net4 B VSS VSS nfet_03v3 L=0.56u W=1.12u nf=1 ad='int((nf+1)/2) * W/nf * 0.18u' as='int((nf+2)/2) * W/nf * 0.18u'
+ pd='2*int((nf+1)/2) * (W/nf + 0.18u)' ps='2*int((nf+2)/2) * (W/nf + 0.18u)' nrd='0.18u / W' nrs='0.18u / W'
+ sa=0 sb=0 sd=0 m=1
x1 VDD A A_bar VSS inverter_1
x2 VDD B B_bar VSS inverter_1
.ends


* expanding   symbol:  3_inp_AND.sym # of pins=6
** sym_path: /home/shahid/GF180Projects/Layout/Xschem/VCO/PLL_TOP_FINAL/3_inp_AND.sym
** sch_path: /home/shahid/GF180Projects/Layout/Xschem/VCO/PLL_TOP_FINAL/3_inp_AND.sch
.subckt 3_inp_AND VDD VOUT A B C VSS
*.iopin VSS
*.iopin VDD
*.ipin A
*.ipin B
*.ipin C
*.opin VOUT
XM1 net3 A net1 VSS nfet_03v3 L=0.56u W=3.36u nf=1 ad='int((nf+1)/2) * W/nf * 0.18u' as='int((nf+2)/2) * W/nf * 0.18u'
+ pd='2*int((nf+1)/2) * (W/nf + 0.18u)' ps='2*int((nf+2)/2) * (W/nf + 0.18u)' nrd='0.18u / W' nrs='0.18u / W'
+ sa=0 sb=0 sd=0 m=1
XM2 net3 C VDD VDD pfet_03v3 L=0.56u W=2.24u nf=1 ad='int((nf+1)/2) * W/nf * 0.18u' as='int((nf+2)/2) * W/nf * 0.18u'
+ pd='2*int((nf+1)/2) * (W/nf + 0.18u)' ps='2*int((nf+2)/2) * (W/nf + 0.18u)' nrd='0.18u / W' nrs='0.18u / W'
+ sa=0 sb=0 sd=0 m=1
XM3 net1 B net2 VSS nfet_03v3 L=0.56u W=3.36u nf=1 ad='int((nf+1)/2) * W/nf * 0.18u' as='int((nf+2)/2) * W/nf * 0.18u'
+ pd='2*int((nf+1)/2) * (W/nf + 0.18u)' ps='2*int((nf+2)/2) * (W/nf + 0.18u)' nrd='0.18u / W' nrs='0.18u / W'
+ sa=0 sb=0 sd=0 m=1
XM4 net2 C VSS VSS nfet_03v3 L=0.56u W=3.36u nf=1 ad='int((nf+1)/2) * W/nf * 0.18u' as='int((nf+2)/2) * W/nf * 0.18u'
+ pd='2*int((nf+1)/2) * (W/nf + 0.18u)' ps='2*int((nf+2)/2) * (W/nf + 0.18u)' nrd='0.18u / W' nrs='0.18u / W'
+ sa=0 sb=0 sd=0 m=1
XM5 net3 B VDD VDD pfet_03v3 L=0.56u W=2.24u nf=1 ad='int((nf+1)/2) * W/nf * 0.18u' as='int((nf+2)/2) * W/nf * 0.18u'
+ pd='2*int((nf+1)/2) * (W/nf + 0.18u)' ps='2*int((nf+2)/2) * (W/nf + 0.18u)' nrd='0.18u / W' nrs='0.18u / W'
+ sa=0 sb=0 sd=0 m=1
XM6 net3 A VDD VDD pfet_03v3 L=0.56u W=2.24u nf=1 ad='int((nf+1)/2) * W/nf * 0.18u' as='int((nf+2)/2) * W/nf * 0.18u'
+ pd='2*int((nf+1)/2) * (W/nf + 0.18u)' ps='2*int((nf+2)/2) * (W/nf + 0.18u)' nrd='0.18u / W' nrs='0.18u / W'
+ sa=0 sb=0 sd=0 m=1
XM7 VOUT net3 VDD VDD pfet_03v3 L=0.56u W=2.24u nf=1 ad='int((nf+1)/2) * W/nf * 0.18u' as='int((nf+2)/2) * W/nf * 0.18u'
+ pd='2*int((nf+1)/2) * (W/nf + 0.18u)' ps='2*int((nf+2)/2) * (W/nf + 0.18u)' nrd='0.18u / W' nrs='0.18u / W'
+ sa=0 sb=0 sd=0 m=1
XM8 VOUT net3 VSS VSS nfet_03v3 L=0.56u W=1.12u nf=1 ad='int((nf+1)/2) * W/nf * 0.18u' as='int((nf+2)/2) * W/nf * 0.18u'
+ pd='2*int((nf+1)/2) * (W/nf + 0.18u)' ps='2*int((nf+2)/2) * (W/nf + 0.18u)' nrd='0.18u / W' nrs='0.18u / W'
+ sa=0 sb=0 sd=0 m=1
XM9 VOUT VOUT VOUT VDD pfet_03v3 L=0.56u W=1.12u nf=1 ad='int((nf+1)/2) * W/nf * 0.18u' as='int((nf+2)/2) * W/nf * 0.18u'
+ pd='2*int((nf+1)/2) * (W/nf + 0.18u)' ps='2*int((nf+2)/2) * (W/nf + 0.18u)' nrd='0.18u / W' nrs='0.18u / W'
+ sa=0 sb=0 sd=0 m=1
XM10 VDD VDD VDD VDD pfet_03v3 L=0.56u W=1.12u nf=1 ad='int((nf+1)/2) * W/nf * 0.18u' as='int((nf+2)/2) * W/nf * 0.18u'
+ pd='2*int((nf+1)/2) * (W/nf + 0.18u)' ps='2*int((nf+2)/2) * (W/nf + 0.18u)' nrd='0.18u / W' nrs='0.18u / W'
+ sa=0 sb=0 sd=0 m=1
.ends


* expanding   symbol:  OR.sym # of pins=5
** sym_path: /home/shahid/GF180Projects/Layout/Xschem/VCO/PLL_TOP_FINAL/OR.sym