** sch_path: /home/shahid/GF180Projects/PLL/PFD+loopfilter/TB_PLL_Top1.sch
**.subckt TB_PLL_Top1
V1 VSS GND 0
.save i(v1)
V2 VDD2 VSS PWL(0 0 0.1US 0 0.101US 3.3)
.save i(v2)
V3 VCTRL2 VSS 3.3
.save i(v3)
C1 OUT1 VSS 5p m=1
C2 OUTB1 VSS 0.1p m=1
x3 VSS VDD OUTB1 net1 Tappered-Buffer_1_pex
x2 VSS VDD OUT1 net2 Tappered-Buffer_1_pex
V6 F_IN VSS pulse(0 3.3 0 100p 100p 500n 1000n)
.save i(v6)
x6 VDD net5 VDD net6 VSS net7 VSS VDD net8 net9 VSS VSS net10 VDD net11 net12 net3 VSS net4 net13
+ 7b_divider
I1 ITAIL VSS 20u
I4 VDD ITAIL1 20u
V4 DIV_OUT VSS pulse(0 3.3 300n 100p 100p 500n 1000n)
.save i(v4)
V5 UP_INPUT VSS pulse(0 3.3 0 100p 100p 500n 1000n)
.save i(v5)
V7 DN_INPUT VSS pulse(0 3.3 500n 100p 100p 500n 1000n)
.save i(v7)
V8 VCTRL_IN VSS 0.1
.save i(v8)
V9 VDD VSS 3.3
.save i(v9)
x1 UP_INPUT VDD DN_INPUT VSS VSS UP F_IN DN ITAIL DIV_OUT VDD ITAIL1 VCTRL_IN VDD VCTRL2 VDD OUT VDD
+ VDD OUTB PLL_TOP1
**** begin user architecture code


.include pex_top_PFD_LP.spice
.include pex_VCO_DFF_C.spice
.include pex_mux_magic.spice
*.include pex_VCO_C.spice
*.include pex_INV_2.spice
*.include pex_DFF_3.spice
.include Tappered-Buffer_1_pex.spice
.include pex_PFD_T2.spice
.include pex_CP.spice
.include Res_74k_pex.spice
.include pex_cap_11p.spice
.include pex_cap_240p.spice
.option savecurrents
*.tran 1 10u 9u


.control
tran 20n 3u
save all
*plot v(OUT)
*plot v(VDD)
*plot v(OUTB)
*plot v(x1.O-)
write TB_PLL_Top1.raw
.endc



.include /home/shahid/OSPDKs/gf180mcuC/libs.tech/ngspice/design.ngspice
.lib /home/shahid/OSPDKs/gf180mcuC/libs.tech/ngspice/sm141064.ngspice typical
.lib /home/shahid/OSPDKs/gf180mcuC/libs.tech/ngspice/sm141064.ngspice res_typical
.lib /home/shahid/OSPDKs/gf180mcuC/libs.tech/ngspice/sm141064.ngspice cap_mim
.lib /home/shahid/OSPDKs/gf180mcuC/libs.tech/ngspice/sm141064.ngspice moscap_typical
.lib /home/shahid/OSPDKs/gf180mcuC/libs.tech/ngspice/sm141064.ngspice mimcap_typical

**** end user architecture code
**.ends

* expanding   symbol:  7b_divider.sym # of pins=20
** sym_path: /home/shahid/GF180Projects/PLL/PFD+loopfilter/7b_divider.sym
** sch_path: /home/shahid/GF180Projects/PLL/PFD+loopfilter/7b_divider.sch
.subckt 7b_divider VDD LD D2_7 Q1 D2_6 Q2 D2_5 D2_4 Q3 Q4 D2_3 D2_2 Q5 D2_1 Q6 Q7 CLK VSS OUT1 P2
*.iopin VDD
*.iopin VSS
*.ipin D2_1
*.ipin CLK
*.ipin D2_2
*.ipin D2_3
*.ipin D2_4
*.ipin D2_5
*.ipin D2_6
*.ipin D2_7
*.opin LD
*.opin Q1
*.opin Q2
*.opin Q3
*.opin Q4
*.opin Q5
*.opin Q6
*.opin Q7
*.opin P2
*.opin OUT1
x4 VDD Q2 b D2_3 VSS XNOR
x5 VDD Q1 a D2_2 VSS XNOR
x6 VDD Q3 c D2_4 VSS XNOR
x7 VDD net1 a b c VSS 3_inp_AND
x2 VDD Q4 d D2_5 VSS XNOR
x3 VDD Q5 e D2_6 VSS XNOR
x9 VDD Q6 f D2_7 VSS XNOR
x10 VDD Q7 g D2_1 VSS XNOR
x15 VDD net4 net1 net2 net3 VSS 3_inp_AND
x16 VDD P0 P2 net5 VSS OR
x17 net5 VDD OUT3 VSS div_by_2
x1 LD VDD Q6 Q4 Q2 Q5 Q1 Q3 Q7 D2_7 D2_6 D2_3 D2_5 D2_2 D2_4 D2_1 CLK VSS 7b_counter_new
x11 VDD net2 d e VSS AND
x12 VDD net3 g f VSS AND
x8 CLK VDD LD P0 VSS DFF
x14 VDD Q2 j2 D2_3 VSS XNOR
x18 VDD Q1 j1 D2_2 VSS XNOR
x19 VDD Q3 j3 D2_4 VSS XNOR
x20 VDD Q4 j4 D2_5 VSS XNOR
x21 VDD Q5 j5 D2_6 VSS XNOR
x22 VDD Q6 j6 D2_7 VSS XNOR
x23 VDD Q7 j7 D2_1B VSS XNOR
x24 VDD D2_1 D2_1B VSS inverter
x25 VDD net6 j1 j2 j3 VSS 3_inp_AND
x26 VDD net9 net6 net7 net8 VSS 3_inp_AND
x27 VDD net7 j4 j5 VSS AND
x28 VDD net8 j6 j7 VSS AND
x29 CLK VDD net9 P3 VSS ned_DFF
x30 VDD P0 P3 net10 VSS OR
x31 net10 VDD OUT2 VSS div_by_2
x32 VDD D2_1 OUT3 net11 VSS OUT2 MUX
x13 CLK VDD net4 P2 VSS DFF
.ends


* expanding   symbol:  PLL_TOP1.sym # of pins=20
** sym_path: /home/shahid/GF180Projects/Layout/Xschem/VCO/PLL_TOP1/PLL_TOP1.sym
** sch_path: /home/shahid/GF180Projects/Layout/Xschem/VCO/PLL_TOP1/PLL_TOP1.sch
.subckt PLL_TOP1 UP_INPUT VDD DN_INPUT VSS PRE_SCALAR UP F_IN DN ITAIL DIV_OUT S1 ITAIL1 VCTRL_IN S6
+ VCTRL2 S2 OUT S3 S4 OUTB
*.ipin UP_INPUT
*.ipin DN_INPUT
*.opin UP
*.opin DN
*.ipin ITAIL
*.ipin ITAIL1
*.ipin VCTRL2
*.opin OUT
*.iopin OUTB
*.iopin VDD
*.iopin VSS
*.ipin PRE_SCALAR
*.ipin F_IN
*.ipin DIV_OUT
*.ipin S1
*.ipin S6
*.ipin S2
*.ipin S3
*.ipin VCTRL_IN
*.ipin S4
x1 net5 VDD VSS net3 net4 net6 PFD_ver_2
x2 VDD S2 net5 UP VSS UP_INPUT MUX
x3 VDD S3 net6 DN VSS DN_INPUT MUX
x4 VDD S1 PRE_SCALAR net3 VSS F_IN MUX
x5 VDD S6 DIV_OUT net4 VSS VSS MUX
x6 VDD ITAIL ITAIL1 net2 DN UP VSS CP
x7 net2 VSS cap_11p
x8 net2 VDD net7 Res_74k
x9 net7 VSS cap_240p
x11 VDD VSS net1 VCTRL2 OUT OUTB VCO_1
x10 VDD VSS net2 VCTRL_IN S4 net1 A_MUX
.ends


* expanding   symbol:  XNOR.sym # of pins=5
** sym_path: /home/shahid/GF180Projects/PLL/PFD+loopfilter/XNOR.sym
** sch_path: /home/shahid/GF180Projects/PLL/PFD+loopfilter/XNOR.sch
.subckt XNOR VDD A OUT B VSS
*.iopin VDD
*.iopin VSS
*.ipin A
*.ipin B
*.opin OUT
XM1 OUT A net3 VSS nfet_03v3 L=0.56u W=1.12u nf=1 ad='int((nf+1)/2) * W/nf * 0.18u' as='int((nf+2)/2) * W/nf * 0.18u'
+ pd='2*int((nf+1)/2) * (W/nf + 0.18u)' ps='2*int((nf+2)/2) * (W/nf + 0.18u)' nrd='0.18u / W' nrs='0.18u / W'
+ sa=0 sb=0 sd=0 m=1
XM2 net1 A VDD VDD pfet_03v3 L=0.56u W=2.24u nf=1 ad='int((nf+1)/2) * W/nf * 0.18u' as='int((nf+2)/2) * W/nf * 0.18u'
+ pd='2*int((nf+1)/2) * (W/nf + 0.18u)' ps='2*int((nf+2)/2) * (W/nf + 0.18u)' nrd='0.18u / W' nrs='0.18u / W'
+ sa=0 sb=0 sd=0 m=1
XM3 net2 A_bar VDD VDD pfet_03v3 L=0.56u W=2.24u nf=1 ad='int((nf+1)/2) * W/nf * 0.18u' as='int((nf+2)/2) * W/nf * 0.18u'
+ pd='2*int((nf+1)/2) * (W/nf + 0.18u)' ps='2*int((nf+2)/2) * (W/nf + 0.18u)' nrd='0.18u / W' nrs='0.18u / W'
+ sa=0 sb=0 sd=0 m=1
XM4 OUT B net1 VDD pfet_03v3 L=0.56u W=2.24u nf=1 ad='int((nf+1)/2) * W/nf * 0.18u' as='int((nf+2)/2) * W/nf * 0.18u'
+ pd='2*int((nf+1)/2) * (W/nf + 0.18u)' ps='2*int((nf+2)/2) * (W/nf + 0.18u)' nrd='0.18u / W' nrs='0.18u / W'
+ sa=0 sb=0 sd=0 m=1
XM5 OUT B_bar net2 VDD pfet_03v3 L=0.56u W=2.24u nf=1 ad='int((nf+1)/2) * W/nf * 0.18u' as='int((nf+2)/2) * W/nf * 0.18u'
+ pd='2*int((nf+1)/2) * (W/nf + 0.18u)' ps='2*int((nf+2)/2) * (W/nf + 0.18u)' nrd='0.18u / W' nrs='0.18u / W'
+ sa=0 sb=0 sd=0 m=1
XM6 OUT A_bar net4 VSS nfet_03v3 L=0.56u W=1.12u nf=1 ad='int((nf+1)/2) * W/nf * 0.18u' as='int((nf+2)/2) * W/nf * 0.18u'
+ pd='2*int((nf+1)/2) * (W/nf + 0.18u)' ps='2*int((nf+2)/2) * (W/nf + 0.18u)' nrd='0.18u / W' nrs='0.18u / W'
+ sa=0 sb=0 sd=0 m=1
XM7 net3 B_bar VSS VSS nfet_03v3 L=0.56u W=1.12u nf=1 ad='int((nf+1)/2) * W/nf * 0.18u' as='int((nf+2)/2) * W/nf * 0.18u'
+ pd='2*int((nf+1)/2) * (W/nf + 0.18u)' ps='2*int((nf+2)/2) * (W/nf + 0.18u)' nrd='0.18u / W' nrs='0.18u / W'
+ sa=0 sb=0 sd=0 m=1
XM8 net4 B VSS VSS nfet_03v3 L=0.56u W=1.12u nf=1 ad='int((nf+1)/2) * W/nf * 0.18u' as='int((nf+2)/2) * W/nf * 0.18u'
+ pd='2*int((nf+1)/2) * (W/nf + 0.18u)' ps='2*int((nf+2)/2) * (W/nf + 0.18u)' nrd='0.18u / W' nrs='0.18u / W'
+ sa=0 sb=0 sd=0 m=1
x1 VDD A A_bar VSS inverter
x2 VDD B B_bar VSS inverter
.ends


* expanding   symbol:  3_inp_AND.sym # of pins=6
** sym_path: /home/shahid/GF180Projects/PLL/PFD+loopfilter/3_inp_AND.sym
** sch_path: /home/shahid/GF180Projects/PLL/PFD+loopfilter/3_inp_AND.sch
.subckt 3_inp_AND VDD VOUT A B C VSS
*.iopin VSS
*.iopin VDD
*.ipin A
*.ipin B
*.ipin C
*.opin VOUT
XM1 net3 A net1 VSS nfet_03v3 L=0.56u W=3.36u nf=1 ad='int((nf+1)/2) * W/nf * 0.18u' as='int((nf+2)/2) * W/nf * 0.18u'
+ pd='2*int((nf+1)/2) * (W/nf + 0.18u)' ps='2*int((nf+2)/2) * (W/nf + 0.18u)' nrd='0.18u / W' nrs='0.18u / W'
+ sa=0 sb=0 sd=0 m=1
XM2 net3 C VDD VDD pfet_03v3 L=0.56u W=2.24u nf=1 ad='int((nf+1)/2) * W/nf * 0.18u' as='int((nf+2)/2) * W/nf * 0.18u'
+ pd='2*int((nf+1)/2) * (W/nf + 0.18u)' ps='2*int((nf+2)/2) * (W/nf + 0.18u)' nrd='0.18u / W' nrs='0.18u / W'
+ sa=0 sb=0 sd=0 m=1
XM3 net1 B net2 VSS nfet_03v3 L=0.56u W=3.36u nf=1 ad='int((nf+1)/2) * W/nf * 0.18u' as='int((nf+2)/2) * W/nf * 0.18u'
+ pd='2*int((nf+1)/2) * (W/nf + 0.18u)' ps='2*int((nf+2)/2) * (W/nf + 0.18u)' nrd='0.18u / W' nrs='0.18u / W'
+ sa=0 sb=0 sd=0 m=1
XM4 net2 C VSS VSS nfet_03v3 L=0.56u W=3.36u nf=1 ad='int((nf+1)/2) * W/nf * 0.18u' as='int((nf+2)/2) * W/nf * 0.18u'
+ pd='2*int((nf+1)/2) * (W/nf + 0.18u)' ps='2*int((nf+2)/2) * (W/nf + 0.18u)' nrd='0.18u / W' nrs='0.18u / W'
+ sa=0 sb=0 sd=0 m=1
XM5 net3 B VDD VDD pfet_03v3 L=0.56u W=2.24u nf=1 ad='int((nf+1)/2) * W/nf * 0.18u' as='int((nf+2)/2) * W/nf * 0.18u'
+ pd='2*int((nf+1)/2) * (W/nf + 0.18u)' ps='2*int((nf+2)/2) * (W/nf + 0.18u)' nrd='0.18u / W' nrs='0.18u / W'
+ sa=0 sb=0 sd=0 m=1
XM6 net3 A VDD VDD pfet_03v3 L=0.56u W=2.24u nf=1 ad='int((nf+1)/2) * W/nf * 0.18u' as='int((nf+2)/2) * W/nf * 0.18u'
+ pd='2*int((nf+1)/2) * (W/nf + 0.18u)' ps='2*int((nf+2)/2) * (W/nf + 0.18u)' nrd='0.18u / W' nrs='0.18u / W'
+ sa=0 sb=0 sd=0 m=1
XM7 VOUT net3 VDD VDD pfet_03v3 L=0.56u W=2.24u nf=1 ad='int((nf+1)/2) * W/nf * 0.18u' as='int((nf+2)/2) * W/nf * 0.18u'
+ pd='2*int((nf+1)/2) * (W/nf + 0.18u)' ps='2*int((nf+2)/2) * (W/nf + 0.18u)' nrd='0.18u / W' nrs='0.18u / W'
+ sa=0 sb=0 sd=0 m=1
XM8 VOUT net3 VSS VSS nfet_03v3 L=0.56u W=1.12u nf=1 ad='int((nf+1)/2) * W/nf * 0.18u' as='int((nf+2)/2) * W/nf * 0.18u'
+ pd='2*int((nf+1)/2) * (W/nf + 0.18u)' ps='2*int((nf+2)/2) * (W/nf + 0.18u)' nrd='0.18u / W' nrs='0.18u / W'
+ sa=0 sb=0 sd=0 m=1
.ends


* expanding   symbol:  OR.sym # of pins=5
** sym_path: /home/shahid/GF180Projects/Layout/Xschem/VCO/PLL_TOP1/OR.sym
** sch_path: /home/shahid/GF180Projects/Layout/Xschem/VCO/PLL_TOP1/OR.sch
.subckt OR VDD A B VOUT VSS
*.iopin VSS
*.iopin VDD
*.ipin A
*.ipin B
*.opin VOUT
XM1 net1 A VSS VSS nfet_03v3 L=0.56u W=1.12u nf=1 ad='int((nf+1)/2) * W/nf * 0.18u' as='int((nf+2)/2) * W/nf * 0.18u'
+ pd='2*int((nf+1)/2) * (W/nf + 0.18u)' ps='2*int((nf+2)/2) * (W/nf + 0.18u)' nrd='0.18u / W' nrs='0.18u / W'
+ sa=0 sb=0 sd=0 m=1
XM2 net1 B net2 VDD pfet_03v3 L=0.56u W=4.48u nf=1 ad='int((nf+1)/2) * W/nf * 0.18u' as='int((nf+2)/2) * W/nf * 0.18u'
+ pd='2*int((nf+1)/2) * (W/nf + 0.18u)' ps='2*int((nf+2)/2) * (W/nf + 0.18u)' nrd='0.18u / W' nrs='0.18u / W'
+ sa=0 sb=0 sd=0 m=1
XM3 net1 B VSS VSS nfet_03v3 L=0.56u W=1.12u nf=1 ad='int((nf+1)/2) * W/nf * 0.18u' as='int((nf+2)/2) * W/nf * 0.18u'
+ pd='2*int((nf+1)/2) * (W/nf + 0.18u)' ps='2*int((nf+2)/2) * (W/nf + 0.18u)' nrd='0.18u / W' nrs='0.18u / W'
+ sa=0 sb=0 sd=0 m=1
XM6 net2 A VDD VDD pfet_03v3 L=0.56u W=4.48u nf=1 ad='int((nf+1)/2) * W/nf * 0.18u' as='int((nf+2)/2) * W/nf * 0.18u'
+ pd='2*int((nf+1)/2) * (W/nf + 0.18u)' ps='2*int((nf+2)/2) * (W/nf + 0.18u)' nrd='0.18u / W' nrs='0.18u / W'
+ sa=0 sb=0 sd=0 m=1
XM4 VOUT net1 VDD VDD pfet_03v3 L=0.56u W=2.24u nf=1 ad='int((nf+1)/2) * W/nf * 0.18u' as='int((nf+2)/2) * W/nf * 0.18u'
+ pd='2*int((nf+1)/2) * (W/nf + 0.18u)' ps='2*int((nf+2)/2) * (W/nf + 0.18u)' nrd='0.18u / W' nrs='0.18u / W'
+ sa=0 sb=0 sd=0 m=1
XM5 VOUT net1 VSS VSS nfet_03v3 L=0.56u W=1.12u nf=1 ad='int((nf+1)/2) * W/nf * 0.18u' as='int((nf+2)/2) * W/nf * 0.18u'
+ pd='2*int((nf+1)/2) * (W/nf + 0.18u)' ps='2*int((nf+2)/2) * (W/nf + 0.18u)' nrd='0.18u / W' nrs='0.18u / W'
+ sa=0 sb=0 sd=0 m=1
.ends


* expanding   symbol:  div_by_2.sym # of pins=4
** sym_path: /home/shahid/GF180Projects/PLL/PFD+loopfilter/div_by_2.sym
** sch_path: /home/shahid/GF180Projects/PLL/PFD+loopfilter/div_by_2.sch
.subckt div_by_2 CLK VDD Q VSS
*.iopin VDD
*.iopin VSS
*.opin Q
*.ipin CLK
x1 VDD CLKB VSS net2 net1 tg
x3 VDD CLK VSS net2 net5 tg
x4 VDD CLK VSS net4 net3 tg
x5 VDD CLKB VSS net4 net1 tg
x2 VDD net2 net3 VSS inverter
x6 VDD net4 Q VSS inverter
x7 VDD Q net1 VSS inverter
x8 VDD net3 net5 VSS inverter
x9 VDD CLK CLKB VSS inverter
.ends


* expanding   symbol:  7b_counter_new.sym # of pins=18
** sym_path: /home/shahid/GF180Projects/PLL/PFD+loopfilter/7b_counter_new.sym
** sch_path: /home/shahid/GF180Projects/PLL/PFD+loopfilter/7b_counter_new.sch
.subckt 7b_counter_new LD VDD Q6 Q4 Q2 Q5 Q1 Q3 Q7 D2_7 D2_6 D2_3 D2_5 D2_2 D2_4 D2_1 G-CLK VSS
*.iopin VDD
*.iopin VSS
*.opin Q3
*.opin Q1
*.ipin D2_1
*.ipin D2_2
*.ipin D2_3
*.ipin G-CLK
*.opin Q2
*.opin LD
*.ipin D2_4
*.opin Q4
*.ipin D2_5
*.opin Q5
*.opin Q6
*.ipin D2_6
*.opin Q7
*.ipin D2_7
x6 VDD net3 net2 net1 VSS NAND
x9 VDD Q1 Q2 Q3 net4 VSS 3_inp_NOR
x7 G-CLK VDD net3 net2 VSS DFF
x8 VDD net2 LD VSS inverter
x1 VDD LD1 D2_1 Q1 a a VSS G-CLK G-CLK MOD_DFF_latest
x3 VDD LD1 D2_2 Q2 b b VSS Q1 G-CLK MOD_DFF_latest
x4 VDD LD1 D2_3 Q3 c c VSS Q2 G-CLK MOD_DFF_latest
x2 VDD LD2 D2_4 Q4 d d VSS Q3 G-CLK MOD_DFF_latest
x10 VDD LD2 D2_5 Q5 e e VSS Q4 G-CLK MOD_DFF_latest
x11 VDD LD3 D2_6 Q6 f f VSS Q5 G-CLK MOD_DFF_latest
x12 VDD LD3 D2_7 Q7 g g VSS Q6 G-CLK MOD_DFF_latest
x5 VDD net1 net6 net4 net5 VSS 3_inp_AND
x13 VDD Q4 Q5 net6 VSS NOR
x14 VDD Q6 Q7 net5 VSS NOR
XM4 net7 LD VDD VDD pfet_03v3 L=0.56u W=7.84u nf=1 ad='int((nf+1)/2) * W/nf * 0.18u' as='int((nf+2)/2) * W/nf * 0.18u'
+ pd='2*int((nf+1)/2) * (W/nf + 0.18u)' ps='2*int((nf+2)/2) * (W/nf + 0.18u)' nrd='0.18u / W' nrs='0.18u / W'
+ sa=0 sb=0 sd=0 m=1
XM5 net7 LD VSS VSS nfet_03v3 L=0.56u W=3.92u nf=1 ad='int((nf+1)/2) * W/nf * 0.18u' as='int((nf+2)/2) * W/nf * 0.18u'
+ pd='2*int((nf+1)/2) * (W/nf + 0.18u)' ps='2*int((nf+2)/2) * (W/nf + 0.18u)' nrd='0.18u / W' nrs='0.18u / W'
+ sa=0 sb=0 sd=0 m=1
XM1 LD1 net7 VDD VDD pfet_03v3 L=0.56u W=7.84u nf=1 ad='int((nf+1)/2) * W/nf * 0.18u' as='int((nf+2)/2) * W/nf * 0.18u'
+ pd='2*int((nf+1)/2) * (W/nf + 0.18u)' ps='2*int((nf+2)/2) * (W/nf + 0.18u)' nrd='0.18u / W' nrs='0.18u / W'
+ sa=0 sb=0 sd=0 m=1
XM2 LD1 net7 VSS VSS nfet_03v3 L=0.56u W=3.92u nf=1 ad='int((nf+1)/2) * W/nf * 0.18u' as='int((nf+2)/2) * W/nf * 0.18u'
+ pd='2*int((nf+1)/2) * (W/nf + 0.18u)' ps='2*int((nf+2)/2) * (W/nf + 0.18u)' nrd='0.18u / W' nrs='0.18u / W'
+ sa=0 sb=0 sd=0 m=1
XM3 net8 LD VDD VDD pfet_03v3 L=0.56u W=7.84u nf=1 ad='int((nf+1)/2) * W/nf * 0.18u' as='int((nf+2)/2) * W/nf * 0.18u'
+ pd='2*int((nf+1)/2) * (W/nf + 0.18u)' ps='2*int((nf+2)/2) * (W/nf + 0.18u)' nrd='0.18u / W' nrs='0.18u / W'
+ sa=0 sb=0 sd=0 m=1
XM6 net8 LD VSS VSS nfet_03v3 L=0.56u W=3.92u nf=1 ad='int((nf+1)/2) * W/nf * 0.18u' as='int((nf+2)/2) * W/nf * 0.18u'
+ pd='2*int((nf+1)/2) * (W/nf + 0.18u)' ps='2*int((nf+2)/2) * (W/nf + 0.18u)' nrd='0.18u / W' nrs='0.18u / W'
+ sa=0 sb=0 sd=0 m=1
XM7 LD2 net8 VDD VDD pfet_03v3 L=0.56u W=7.84u nf=1 ad='int((nf+1)/2) * W/nf * 0.18u' as='int((nf+2)/2) * W/nf * 0.18u'
+ pd='2*int((nf+1)/2) * (W/nf + 0.18u)' ps='2*int((nf+2)/2) * (W/nf + 0.18u)' nrd='0.18u / W' nrs='0.18u / W'
+ sa=0 sb=0 sd=0 m=1
XM8 LD2 net8 VSS VSS nfet_03v3 L=0.56u W=3.92u nf=1 ad='int((nf+1)/2) * W/nf * 0.18u' as='int((nf+2)/2) * W/nf * 0.18u'
+ pd='2*int((nf+1)/2) * (W/nf + 0.18u)' ps='2*int((nf+2)/2) * (W/nf + 0.18u)' nrd='0.18u / W' nrs='0.18u / W'
+ sa=0 sb=0 sd=0 m=1
XM9 net9 LD VDD VDD pfet_03v3 L=0.56u W=7.84u nf=1 ad='int((nf+1)/2) * W/nf * 0.18u' as='int((nf+2)/2) * W/nf * 0.18u'
+ pd='2*int((nf+1)/2) * (W/nf + 0.18u)' ps='2*int((nf+2)/2) * (W/nf + 0.18u)' nrd='0.18u / W' nrs='0.18u / W'
+ sa=0 sb=0 sd=0 m=1
XM10 net9 LD VSS VSS nfet_03v3 L=0.56u W=3.92u nf=1 ad='int((nf+1)/2) * W/nf * 0.18u' as='int((nf+2)/2) * W/nf * 0.18u'
+ pd='2*int((nf+1)/2) * (W/nf + 0.18u)' ps='2*int((nf+2)/2) * (W/nf + 0.18u)' nrd='0.18u / W' nrs='0.18u / W'
+ sa=0 sb=0 sd=0 m=1
XM11 LD3 net9 VDD VDD pfet_03v3 L=0.56u W=7.84u nf=1 ad='int((nf+1)/2) * W/nf * 0.18u' as='int((nf+2)/2) * W/nf * 0.18u'
+ pd='2*int((nf+1)/2) * (W/nf + 0.18u)' ps='2*int((nf+2)/2) * (W/nf + 0.18u)' nrd='0.18u / W' nrs='0.18u / W'
+ sa=0 sb=0 sd=0 m=1
XM12 LD3 net9 VSS VSS nfet_03v3 L=0.56u W=3.92u nf=1 ad='int((nf+1)/2) * W/nf * 0.18u' as='int((nf+2)/2) * W/nf * 0.18u'
+ pd='2*int((nf+1)/2) * (W/nf + 0.18u)' ps='2*int((nf+2)/2) * (W/nf + 0.18u)' nrd='0.18u / W' nrs='0.18u / W'
+ sa=0 sb=0 sd=0 m=1
.ends


* expanding   symbol:  AND.sym # of pins=5
** sym_path: /home/shahid/GF180Projects/Layout/Xschem/VCO/PLL_TOP1/AND.sym
** sch_path: /home/shahid/GF180Projects/Layout/Xschem/VCO/PLL_TOP1/AND.sch
.subckt AND VDD VOUT A B VSS
*.iopin VDD
*.iopin VSS
*.ipin A
*.ipin B
*.opin VOUT
XM1 net1 A net2 VSS nfet_03v3 L=0.56u W=2.24u nf=1 ad='int((nf+1)/2) * W/nf * 0.18u' as='int((nf+2)/2) * W/nf * 0.18u'
+ pd='2*int((nf+1)/2) * (W/nf + 0.18u)' ps='2*int((nf+2)/2) * (W/nf + 0.18u)' nrd='0.18u / W' nrs='0.18u / W'
+ sa=0 sb=0 sd=0 m=1
XM2 net1 A VDD VDD pfet_03v3 L=0.56u W=2.24u nf=1 ad='int((nf+1)/2) * W/nf * 0.18u' as='int((nf+2)/2) * W/nf * 0.18u'
+ pd='2*int((nf+1)/2) * (W/nf + 0.18u)' ps='2*int((nf+2)/2) * (W/nf + 0.18u)' nrd='0.18u / W' nrs='0.18u / W'
+ sa=0 sb=0 sd=0 m=1
XM3 net1 B VDD VDD pfet_03v3 L=0.56u W=2.24u nf=1 ad='int((nf+1)/2) * W/nf * 0.18u' as='int((nf+2)/2) * W/nf * 0.18u'
+ pd='2*int((nf+1)/2) * (W/nf + 0.18u)' ps='2*int((nf+2)/2) * (W/nf + 0.18u)' nrd='0.18u / W' nrs='0.18u / W'
+ sa=0 sb=0 sd=0 m=1
XM4 net2 B VSS VSS nfet_03v3 L=0.56u W=2.24u nf=1 ad='int((nf+1)/2) * W/nf * 0.18u' as='int((nf+2)/2) * W/nf * 0.18u'
+ pd='2*int((nf+1)/2) * (W/nf + 0.18u)' ps='2*int((nf+2)/2) * (W/nf + 0.18u)' nrd='0.18u / W' nrs='0.18u / W'
+ sa=0 sb=0 sd=0 m=1
XM5 VOUT net1 VDD VDD pfet_03v3 L=0.56u W=2.24u nf=1 ad='int((nf+1)/2) * W/nf * 0.18u' as='int((nf+2)/2) * W/nf * 0.18u'
+ pd='2*int((nf+1)/2) * (W/nf + 0.18u)' ps='2*int((nf+2)/2) * (W/nf + 0.18u)' nrd='0.18u / W' nrs='0.18u / W'
+ sa=0 sb=0 sd=0 m=1
XM6 VOUT net1 VSS VSS nfet_03v3 L=0.56u W=1.12u nf=1 ad='int((nf+1)/2) * W/nf * 0.18u' as='int((nf+2)/2) * W/nf * 0.18u'
+ pd='2*int((nf+1)/2) * (W/nf + 0.18u)' ps='2*int((nf+2)/2) * (W/nf + 0.18u)' nrd='0.18u / W' nrs='0.18u / W'
+ sa=0 sb=0 sd=0 m=1
.ends


* expanding   symbol:  DFF.sym # of pins=5
** sym_path: /home/shahid/GF180Projects/PLL/PFD+loopfilter/DFF.sym
** sch_path: /home/shahid/GF180Projects/PLL/PFD+loopfilter/DFF.sch
.subckt DFF CLK VDD D Q VSS
*.ipin D
*.iopin VDD
*.iopin VSS
*.opin Q
*.ipin CLK
x1 VDD CLKB VSS net1 D tg
x3 VDD CLK VSS net1 net5 tg
x4 VDD CLK VSS net3 net2 tg
x5 VDD CLKB VSS net3 net4 tg
x2 VDD net1 net2 VSS inverter
x6 VDD net3 Q VSS inverter
x7 VDD Q net4 VSS inverter
x8 VDD net2 net5 VSS inverter
x9 VDD CLK CLKB VSS inverter
.ends


* expanding   symbol:  inverter.sym # of pins=4
** sym_path: /home/shahid/GF180Projects/PLL/PFD+loopfilter/inverter.sym
** sch_path: /home/shahid/GF180Projects/PLL/PFD+loopfilter/inverter.sch
.subckt inverter VDD VIN VOUT VSS
*.iopin VDD
*.ipin VIN
*.opin VOUT
*.iopin VSS
XM4 VOUT VIN VDD VDD pfet_03v3 L=0.56u W=4.48u nf=1 ad='int((nf+1)/2) * W/nf * 0.18u' as='int((nf+2)/2) * W/nf * 0.18u'
+ pd='2*int((nf+1)/2) * (W/nf + 0.18u)' ps='2*int((nf+2)/2) * (W/nf + 0.18u)' nrd='0.18u / W' nrs='0.18u / W'
+ sa=0 sb=0 sd=0 m=1
XM5 VOUT VIN VSS VSS nfet_03v3 L=0.56u W=2.24u nf=1 ad='int((nf+1)/2) * W/nf * 0.18u' as='int((nf+2)/2) * W/nf * 0.18u'
+ pd='2*int((nf+1)/2) * (W/nf + 0.18u)' ps='2*int((nf+2)/2) * (W/nf + 0.18u)' nrd='0.18u / W' nrs='0.18u / W'
+ sa=0 sb=0 sd=0 m=1
.ends


* expanding   symbol:  ned_DFF.sym # of pins=5
** sym_path: /home/shahid/GF180Projects/PLL/PFD+loopfilter/ned_DFF.sym
** sch_path: /home/shahid/GF180Projects/PLL/PFD+loopfilter/ned_DFF.sch
.subckt ned_DFF CLK VDD D Q VSS
*.ipin D
*.iopin VDD
*.iopin VSS
*.opin Q
*.ipin CLK
x1 VDD CLK VSS net1 D tg
x3 VDD CLKB VSS net1 net5 tg
x4 VDD CLKB VSS net3 net2 tg
x5 VDD CLK VSS net3 net4 tg
x2 VDD net1 net2 VSS inverter
x6 VDD net3 Q VSS inverter
x7 VDD Q net4 VSS inverter
x8 VDD net2 net5 VSS inverter
x9 VDD CLK CLKB VSS inverter
.ends


* expanding   symbol:  MUX.sym # of pins=6
** sym_path: /home/shahid/GF180Projects/Layout/Xschem/VCO/PLL_TOP1/MUX.sym
** sch_path: /home/shahid/GF180Projects/Layout/Xschem/VCO/PLL_TOP1/MUX.sch
.subckt MUX VDD SEL IN1 VOUT VSS IN2
*.ipin SEL
*.ipin IN1
*.ipin IN2
*.opin VOUT
*.iopin VDD
*.iopin VSS
x2 VDD net3 net1 IN1 VSS AND
x3 VDD net2 SEL IN2 VSS AND
x4 VDD net3 net2 VOUT VSS OR
XM4 net1 SEL VDD VDD pfet_03v3 L=0.56u W=6.72u nf=1 ad='int((nf+1)/2) * W/nf * 0.18u' as='int((nf+2)/2) * W/nf * 0.18u'
+ pd='2*int((nf+1)/2) * (W/nf + 0.18u)' ps='2*int((nf+2)/2) * (W/nf + 0.18u)' nrd='0.18u / W' nrs='0.18u / W'
+ sa=0 sb=0 sd=0 m=1
XM5 net1 SEL VSS VSS nfet_03v3 L=0.56u W=3.36u nf=1 ad='int((nf+1)/2) * W/nf * 0.18u' as='int((nf+2)/2) * W/nf * 0.18u'
+ pd='2*int((nf+1)/2) * (W/nf + 0.18u)' ps='2*int((nf+2)/2) * (W/nf + 0.18u)' nrd='0.18u / W' nrs='0.18u / W'
+ sa=0 sb=0 sd=0 m=1
.ends


* expanding   symbol:  PFD_ver_2.sym # of pins=6
** sym_path: /home/shahid/GF180Projects/Layout/Xschem/VCO/PLL_TOP1/PFD_ver_2.sym
** sch_path: /home/shahid/GF180Projects/Layout/Xschem/VCO/PLL_TOP1/PFD_ver_2.sch
.subckt PFD_ver_2 up VDD VSS FIN FDIV down
*.iopin VDD
*.iopin VSS
*.ipin FIN
*.ipin FDIV
*.opin up
*.opin down
XM1 A x1b net2 VSS nfet_03v3 L=0.5u W=1u nf=1 ad='int((nf+1)/2) * W/nf * 0.18u' as='int((nf+2)/2) * W/nf * 0.18u'
+ pd='2*int((nf+1)/2) * (W/nf + 0.18u)' ps='2*int((nf+2)/2) * (W/nf + 0.18u)' nrd='0.18u / W' nrs='0.18u / W'
+ sa=0 sb=0 sd=0 m=1
XM4 A FIN VDD VDD pfet_03v3 L=0.5u W=1u nf=1 ad='int((nf+1)/2) * W/nf * 0.18u' as='int((nf+2)/2) * W/nf * 0.18u'
+ pd='2*int((nf+1)/2) * (W/nf + 0.18u)' ps='2*int((nf+2)/2) * (W/nf + 0.18u)' nrd='0.18u / W' nrs='0.18u / W'
+ sa=0 sb=0 sd=0 m=1
XM5 x1 A VDD VDD pfet_03v3 L=0.5u W=5.5u nf=1 ad='int((nf+1)/2) * W/nf * 0.18u' as='int((nf+2)/2) * W/nf * 0.18u'
+ pd='2*int((nf+1)/2) * (W/nf + 0.18u)' ps='2*int((nf+2)/2) * (W/nf + 0.18u)' nrd='0.18u / W' nrs='0.18u / W'
+ sa=0 sb=0 sd=0 m=1
XM6 x1 x1 net3 VDD pfet_03v3 L=0.5u W=1u nf=1 ad='int((nf+1)/2) * W/nf * 0.18u' as='int((nf+2)/2) * W/nf * 0.18u'
+ pd='2*int((nf+1)/2) * (W/nf + 0.18u)' ps='2*int((nf+2)/2) * (W/nf + 0.18u)' nrd='0.18u / W' nrs='0.18u / W'
+ sa=0 sb=0 sd=0 m=1
XM7 net3 x2 VDD VDD pfet_03v3 L=0.5u W=1u nf=1 ad='int((nf+1)/2) * W/nf * 0.18u' as='int((nf+2)/2) * W/nf * 0.18u'
+ pd='2*int((nf+1)/2) * (W/nf + 0.18u)' ps='2*int((nf+2)/2) * (W/nf + 0.18u)' nrd='0.18u / W' nrs='0.18u / W'
+ sa=0 sb=0 sd=0 m=1
XM8 x3 x1 VDD VDD pfet_03v3 L=0.5u W=2.5u nf=1 ad='int((nf+1)/2) * W/nf * 0.18u' as='int((nf+2)/2) * W/nf * 0.18u'
+ pd='2*int((nf+1)/2) * (W/nf + 0.18u)' ps='2*int((nf+2)/2) * (W/nf + 0.18u)' nrd='0.18u / W' nrs='0.18u / W'
+ sa=0 sb=0 sd=0 m=1
XM9 net2 x2b VSS VSS nfet_03v3 L=0.5u W=1u nf=1 ad='int((nf+1)/2) * W/nf * 0.18u' as='int((nf+2)/2) * W/nf * 0.18u'
+ pd='2*int((nf+1)/2) * (W/nf + 0.18u)' ps='2*int((nf+2)/2) * (W/nf + 0.18u)' nrd='0.18u / W' nrs='0.18u / W'
+ sa=0 sb=0 sd=0 m=1
XM11 x1 FIN net1 VSS nfet_03v3 L=0.5u W=1u nf=1 ad='int((nf+1)/2) * W/nf * 0.18u' as='int((nf+2)/2) * W/nf * 0.18u'
+ pd='2*int((nf+1)/2) * (W/nf + 0.18u)' ps='2*int((nf+2)/2) * (W/nf + 0.18u)' nrd='0.18u / W' nrs='0.18u / W'
+ sa=0 sb=0 sd=0 m=1
XM12 net1 A VSS VSS nfet_03v3 L=0.5u W=1u nf=1 ad='int((nf+1)/2) * W/nf * 0.18u' as='int((nf+2)/2) * W/nf * 0.18u'
+ pd='2*int((nf+1)/2) * (W/nf + 0.18u)' ps='2*int((nf+2)/2) * (W/nf + 0.18u)' nrd='0.18u / W' nrs='0.18u / W'
+ sa=0 sb=0 sd=0 m=1
XM13 x3 x1 net4 VSS nfet_03v3 L=0.5u W=1.5u nf=1 ad='int((nf+1)/2) * W/nf * 0.18u' as='int((nf+2)/2) * W/nf * 0.18u'
+ pd='2*int((nf+1)/2) * (W/nf + 0.18u)' ps='2*int((nf+2)/2) * (W/nf + 0.18u)' nrd='0.18u / W' nrs='0.18u / W'
+ sa=0 sb=0 sd=0 m=1
XM14 net4 x1 VSS VSS nfet_03v3 L=0.5u W=1.5u nf=1 ad='int((nf+1)/2) * W/nf * 0.18u' as='int((nf+2)/2) * W/nf * 0.18u'
+ pd='2*int((nf+1)/2) * (W/nf + 0.18u)' ps='2*int((nf+2)/2) * (W/nf + 0.18u)' nrd='0.18u / W' nrs='0.18u / W'
+ sa=0 sb=0 sd=0 m=1
x1 VSS VDD x1b x1 GF_INV
XM15 B x1b net6 VSS nfet_03v3 L=0.5u W=1u nf=1 ad='int((nf+1)/2) * W/nf * 0.18u' as='int((nf+2)/2) * W/nf * 0.18u'
+ pd='2*int((nf+1)/2) * (W/nf + 0.18u)' ps='2*int((nf+2)/2) * (W/nf + 0.18u)' nrd='0.18u / W' nrs='0.18u / W'
+ sa=0 sb=0 sd=0 m=1
XM18 B FDIV VDD VDD pfet_03v3 L=0.5u W=1u nf=1 ad='int((nf+1)/2) * W/nf * 0.18u' as='int((nf+2)/2) * W/nf * 0.18u'
+ pd='2*int((nf+1)/2) * (W/nf + 0.18u)' ps='2*int((nf+2)/2) * (W/nf + 0.18u)' nrd='0.18u / W' nrs='0.18u / W'
+ sa=0 sb=0 sd=0 m=1
XM19 x2 B VDD VDD pfet_03v3 L=0.5u W=5.5u nf=1 ad='int((nf+1)/2) * W/nf * 0.18u' as='int((nf+2)/2) * W/nf * 0.18u'
+ pd='2*int((nf+1)/2) * (W/nf + 0.18u)' ps='2*int((nf+2)/2) * (W/nf + 0.18u)' nrd='0.18u / W' nrs='0.18u / W'
+ sa=0 sb=0 sd=0 m=1
XM20 x2 x2 net7 VDD pfet_03v3 L=0.5u W=1u nf=1 ad='int((nf+1)/2) * W/nf * 0.18u' as='int((nf+2)/2) * W/nf * 0.18u'
+ pd='2*int((nf+1)/2) * (W/nf + 0.18u)' ps='2*int((nf+2)/2) * (W/nf + 0.18u)' nrd='0.18u / W' nrs='0.18u / W'
+ sa=0 sb=0 sd=0 m=1
XM21 net7 x1 VDD VDD pfet_03v3 L=0.5u W=1u nf=1 ad='int((nf+1)/2) * W/nf * 0.18u' as='int((nf+2)/2) * W/nf * 0.18u'
+ pd='2*int((nf+1)/2) * (W/nf + 0.18u)' ps='2*int((nf+2)/2) * (W/nf + 0.18u)' nrd='0.18u / W' nrs='0.18u / W'
+ sa=0 sb=0 sd=0 m=1
XM22 net8 x2 VDD VDD pfet_03v3 L=0.5u W=2.5u nf=1 ad='int((nf+1)/2) * W/nf * 0.18u' as='int((nf+2)/2) * W/nf * 0.18u'
+ pd='2*int((nf+1)/2) * (W/nf + 0.18u)' ps='2*int((nf+2)/2) * (W/nf + 0.18u)' nrd='0.18u / W' nrs='0.18u / W'
+ sa=0 sb=0 sd=0 m=1
XM23 net6 x2b VSS VSS nfet_03v3 L=0.5u W=1u nf=1 ad='int((nf+1)/2) * W/nf * 0.18u' as='int((nf+2)/2) * W/nf * 0.18u'
+ pd='2*int((nf+1)/2) * (W/nf + 0.18u)' ps='2*int((nf+2)/2) * (W/nf + 0.18u)' nrd='0.18u / W' nrs='0.18u / W'
+ sa=0 sb=0 sd=0 m=1
XM25 x2 FDIV net5 VSS nfet_03v3 L=0.5u W=1u nf=1 ad='int((nf+1)/2) * W/nf * 0.18u' as='int((nf+2)/2) * W/nf * 0.18u'
+ pd='2*int((nf+1)/2) * (W/nf + 0.18u)' ps='2*int((nf+2)/2) * (W/nf + 0.18u)' nrd='0.18u / W' nrs='0.18u / W'
+ sa=0 sb=0 sd=0 m=1
XM26 net5 B VSS VSS nfet_03v3 L=0.5u W=1u nf=1 ad='int((nf+1)/2) * W/nf * 0.18u' as='int((nf+2)/2) * W/nf * 0.18u'
+ pd='2*int((nf+1)/2) * (W/nf + 0.18u)' ps='2*int((nf+2)/2) * (W/nf + 0.18u)' nrd='0.18u / W' nrs='0.18u / W'
+ sa=0 sb=0 sd=0 m=1
XM27 net8 x2 net9 VSS nfet_03v3 L=0.5u W=1.5u nf=1 ad='int((nf+1)/2) * W/nf * 0.18u' as='int((nf+2)/2) * W/nf * 0.18u'
+ pd='2*int((nf+1)/2) * (W/nf + 0.18u)' ps='2*int((nf+2)/2) * (W/nf + 0.18u)' nrd='0.18u / W' nrs='0.18u / W'
+ sa=0 sb=0 sd=0 m=1
XM28 net9 x2 VSS VSS nfet_03v3 L=0.5u W=1.5u nf=1 ad='int((nf+1)/2) * W/nf * 0.18u' as='int((nf+2)/2) * W/nf * 0.18u'
+ pd='2*int((nf+1)/2) * (W/nf + 0.18u)' ps='2*int((nf+2)/2) * (W/nf + 0.18u)' nrd='0.18u / W' nrs='0.18u / W'
+ sa=0 sb=0 sd=0 m=1
x2 VSS VDD x2b x2 GF_INV
XM29 net8 x1b VSS VSS nfet_03v3 L=0.5u W=1.5u nf=1 ad='int((nf+1)/2) * W/nf * 0.18u' as='int((nf+2)/2) * W/nf * 0.18u'
+ pd='2*int((nf+1)/2) * (W/nf + 0.18u)' ps='2*int((nf+2)/2) * (W/nf + 0.18u)' nrd='0.18u / W' nrs='0.18u / W'
+ sa=0 sb=0 sd=0 m=1
XM30 x3 x2b VSS VSS nfet_03v3 L=0.5u W=1.5u nf=1 ad='int((nf+1)/2) * W/nf * 0.18u' as='int((nf+2)/2) * W/nf * 0.18u'
+ pd='2*int((nf+1)/2) * (W/nf + 0.18u)' ps='2*int((nf+2)/2) * (W/nf + 0.18u)' nrd='0.18u / W' nrs='0.18u / W'
+ sa=0 sb=0 sd=0 m=1
x3 VDD x3 up VSS Buffer_V_2
x4 VDD net8 down VSS Buffer_V_2
.ends


* expanding   symbol:  CP.sym # of pins=7
** sym_path: /home/shahid/GF180Projects/Layout/Xschem/VCO/PLL_TOP1/CP.sym
** sch_path: /home/shahid/GF180Projects/Layout/Xschem/VCO/PLL_TOP1/CP.sch
.subckt CP VDD ITAIL ITAIL1 VCTRL UP down VSS
*.ipin UP
*.ipin down
*.iopin VCTRL
*.iopin VDD
*.iopin VSS
*.iopin ITAIL1
*.iopin ITAIL
XM1 net1 net2 VDD VDD pfet_03v3 L=0.56u W=2.8u nf=1 ad='int((nf+1)/2) * W/nf * 0.18u' as='int((nf+2)/2) * W/nf * 0.18u'
+ pd='2*int((nf+1)/2) * (W/nf + 0.18u)' ps='2*int((nf+2)/2) * (W/nf + 0.18u)' nrd='0.18u / W' nrs='0.18u / W'
+ sa=0 sb=0 sd=0 m=1
XM3 VCTRL ITAIL net1 VDD pfet_03v3 L=0.56u W=2.24u nf=1 ad='int((nf+1)/2) * W/nf * 0.18u' as='int((nf+2)/2) * W/nf * 0.18u'
+ pd='2*int((nf+1)/2) * (W/nf + 0.18u)' ps='2*int((nf+2)/2) * (W/nf + 0.18u)' nrd='0.18u / W' nrs='0.18u / W'
+ sa=0 sb=0 sd=0 m=1
XM2 ITAIL ITAIL VDD VDD pfet_03v3 L=0.56u W=2.24u nf=1 ad='int((nf+1)/2) * W/nf * 0.18u' as='int((nf+2)/2) * W/nf * 0.18u'
+ pd='2*int((nf+1)/2) * (W/nf + 0.18u)' ps='2*int((nf+2)/2) * (W/nf + 0.18u)' nrd='0.18u / W' nrs='0.18u / W'
+ sa=0 sb=0 sd=0 m=1
XM6 ITAIL1 ITAIL1 VSS VSS nfet_03v3 L=0.56u W=1.12u nf=1 ad='int((nf+1)/2) * W/nf * 0.18u' as='int((nf+2)/2) * W/nf * 0.18u'
+ pd='2*int((nf+1)/2) * (W/nf + 0.18u)' ps='2*int((nf+2)/2) * (W/nf + 0.18u)' nrd='0.18u / W' nrs='0.18u / W'
+ sa=0 sb=0 sd=0 m=1
XM5 VCTRL ITAIL1 net3 VSS nfet_03v3 L=0.56u W=1.12u nf=1 ad='int((nf+1)/2) * W/nf * 0.18u' as='int((nf+2)/2) * W/nf * 0.18u'
+ pd='2*int((nf+1)/2) * (W/nf + 0.18u)' ps='2*int((nf+2)/2) * (W/nf + 0.18u)' nrd='0.18u / W' nrs='0.18u / W'
+ sa=0 sb=0 sd=0 m=1
XM4 net3 down VSS VSS nfet_03v3 L=0.56u W=1.4u nf=1 ad='int((nf+1)/2) * W/nf * 0.18u' as='int((nf+2)/2) * W/nf * 0.18u'
+ pd='2*int((nf+1)/2) * (W/nf + 0.18u)' ps='2*int((nf+2)/2) * (W/nf + 0.18u)' nrd='0.18u / W' nrs='0.18u / W'
+ sa=0 sb=0 sd=0 m=1
XM7 net2 UP VSS VSS nfet_03v3 L=0.56u W=0.56u nf=1 ad='int((nf+1)/2) * W/nf * 0.18u' as='int((nf+2)/2) * W/nf * 0.18u'
+ pd='2*int((nf+1)/2) * (W/nf + 0.18u)' ps='2*int((nf+2)/2) * (W/nf + 0.18u)' nrd='0.18u / W' nrs='0.18u / W'
+ sa=0 sb=0 sd=0 m=1
XM8 net2 UP VDD VDD pfet_03v3 L=0.56u W=1.12u nf=1 ad='int((nf+1)/2) * W/nf * 0.18u' as='int((nf+2)/2) * W/nf * 0.18u'
+ pd='2*int((nf+1)/2) * (W/nf + 0.18u)' ps='2*int((nf+2)/2) * (W/nf + 0.18u)' nrd='0.18u / W' nrs='0.18u / W'
+ sa=0 sb=0 sd=0 m=1
.ends


* expanding   symbol:  cap_11p.sym # of pins=2
** sym_path: /home/shahid/GF180Projects/Layout/Xschem/VCO/PLL_TOP1/cap_11p.sym
** sch_path: /home/shahid/GF180Projects/Layout/Xschem/VCO/PLL_TOP1/cap_11p.sch
.subckt cap_11p P M
*.iopin P
*.iopin M
XC1 P M cap_mim_2f0_m4m5_noshield c_width=30e-6 c_length=30e-6 m=6
.ends


* expanding   symbol:  Res_74k.sym # of pins=3
** sym_path: /home/shahid/GF180Projects/Layout/Xschem/VCO/PLL_TOP1/Res_74k.sym
** sch_path: /home/shahid/GF180Projects/Layout/Xschem/VCO/PLL_TOP1/Res_74k.sch
.subckt Res_74k P VDD M
*.iopin P
*.iopin VDD
*.iopin M
XR1 M P VDD ppolyf_u r_width=1.1e-6 r_length=195e-6 m=1
XR2 P P VDD ppolyf_u r_width=48.4e-6 r_length=2.6e-6 m=1
.ends


* expanding   symbol:  cap_240p.sym # of pins=2
** sym_path: /home/shahid/GF180Projects/Layout/Xschem/VCO/PLL_TOP1/cap_240p.sym
** sch_path: /home/shahid/GF180Projects/Layout/Xschem/VCO/PLL_TOP1/cap_240p.sch
.subckt cap_240p P M
*.iopin P
*.iopin M
XC1 P M cap_mim_2f0_m4m5_noshield c_width=31e-6 c_length=29e-6 m=132
.ends


* expanding   symbol:  VCO_1.sym # of pins=6
** sym_path: /home/shahid/GF180Projects/Layout/Xschem/VCO/PLL_TOP1/VCO_1.sym
** sch_path: /home/shahid/GF180Projects/Layout/Xschem/VCO/PLL_TOP1/VCO_1.sch