** sch_path: /home/shahid/GF180Projects/Tapeout/Xschem/PGA_block_new/PGA_block_ppoly.sch
**.subckt PGA_block_ppoly A B C VDD VSS IREF VCM OUT1 OUT2 IN1 IN2
*.ipin A
*.ipin B
*.ipin C
*.iopin VDD
*.iopin VSS
*.iopin IREF
*.ipin VCM
*.opin OUT1
*.opin OUT2
*.ipin IN1
*.ipin IN2
x14 VDD IN2 net11 net10 net14 net13 net9 OUT2 net12 resis_PGA
x15 VDD IN1 net5 net4 net8 net7 net3 OUT1 net6 resis_PGA
x17 VDD IN2 net11 net10 net14 net13 net9 OUT2 net12 resis_PGA
x18 VDD IN1 net5 net4 net8 net7 net3 OUT1 net6 resis_PGA
x1 VDD VSS S1 net3 net1 Transmission_Gate_5x
x2 VDD VSS S2 net4 net1 Transmission_Gate_5x
x3 VDD VSS S3 net5 net1 Transmission_Gate_5x
x4 VDD VSS S4 net6 net1 Transmission_Gate_5x
x5 VDD VSS S5 net7 net1 Transmission_Gate_5x
x6 VDD VSS S6 net8 net1 Transmission_Gate_5x
x7 VDD VSS S6 net14 net2 Transmission_Gate_5x
x8 VDD VSS S5 net13 net2 Transmission_Gate_5x
x9 VDD VSS S4 net12 net2 Transmission_Gate_5x
x10 VDD VSS S3 net11 net2 Transmission_Gate_5x
x11 VDD VSS S2 net10 net2 Transmission_Gate_5x
x12 VDD VSS S1 net9 net2 Transmission_Gate_5x
x16 VDD VSS VCM net2 net1 OUT1 OUT2 IREF Folded_Cascode_Diff
x13 S2 S3 S1 VDD A S6 B S4 C VSS S5 PGA_Decoder
**.ends

* expanding   symbol:  resis_PGA.sym # of pins=9
** sym_path: /home/shahid/GF180Projects/Tapeout/Xschem/PGA_block_new/resis_PGA.sym
** sch_path: /home/shahid/GF180Projects/Tapeout/Xschem/PGA_block_new/resis_PGA.sch
.subckt resis_PGA VDD A E F B C G H D
*.iopin VDD
*.iopin A
*.iopin B
*.iopin C
*.iopin D
*.iopin E
*.iopin F
*.iopin G
*.iopin H
XR1 A net1 VDD ppolyf_u r_width=1.2e-6 r_length=1e-6 m=1
XR2 net1 net2 VDD ppolyf_u r_width=1.2e-6 r_length=1e-6 m=1
XR3 net2 net3 VDD ppolyf_u r_width=1.2e-6 r_length=1e-6 m=1
XR4 net3 net4 VDD ppolyf_u r_width=1.2e-6 r_length=1e-6 m=1
XR5 net4 net5 VDD ppolyf_u r_width=1.2e-6 r_length=1e-6 m=1
XR6 net5 net6 VDD ppolyf_u r_width=1.2e-6 r_length=1e-6 m=1
XR7 net6 net7 VDD ppolyf_u r_width=1.2e-6 r_length=1e-6 m=1
XR8 net7 net8 VDD ppolyf_u r_width=1.2e-6 r_length=1e-6 m=1
XR9 net8 net9 VDD ppolyf_u r_width=1.2e-6 r_length=1e-6 m=1
XR10 net9 B VDD ppolyf_u r_width=1.2e-6 r_length=1e-6 m=1
XR11 C net10 VDD ppolyf_u r_width=1.2e-6 r_length=1e-6 m=1
XR12 net10 net11 VDD ppolyf_u r_width=1.2e-6 r_length=1e-6 m=1
XR13 net11 net12 VDD ppolyf_u r_width=1.2e-6 r_length=1e-6 m=1
XR14 net12 net13 VDD ppolyf_u r_width=1.2e-6 r_length=1e-6 m=1
XR15 net13 net14 VDD ppolyf_u r_width=1.2e-6 r_length=1e-6 m=1
XR16 net14 net15 VDD ppolyf_u r_width=1.2e-6 r_length=1e-6 m=1
XR17 net15 net16 VDD ppolyf_u r_width=1.2e-6 r_length=1e-6 m=1
XR18 net16 B VDD ppolyf_u r_width=1.2e-6 r_length=1e-6 m=1
XR19 C net17 VDD ppolyf_u r_width=1.2e-6 r_length=1e-6 m=1
XR20 net17 net18 VDD ppolyf_u r_width=1.2e-6 r_length=1e-6 m=1
XR21 net18 net19 VDD ppolyf_u r_width=1.2e-6 r_length=1e-6 m=1
XR22 net19 net20 VDD ppolyf_u r_width=1.2e-6 r_length=1e-6 m=1
XR23 net20 net21 VDD ppolyf_u r_width=1.2e-6 r_length=1e-6 m=1
XR24 net21 net22 VDD ppolyf_u r_width=1.2e-6 r_length=1e-6 m=1
XR25 net22 net23 VDD ppolyf_u r_width=1.2e-6 r_length=1e-6 m=1
XR26 net23 net24 VDD ppolyf_u r_width=1.2e-6 r_length=1e-6 m=1
XR27 net24 net25 VDD ppolyf_u r_width=1.2e-6 r_length=1e-6 m=1
XR28 net25 net26 VDD ppolyf_u r_width=1.2e-6 r_length=1e-6 m=1
XR29 net26 net27 VDD ppolyf_u r_width=1.2e-6 r_length=1e-6 m=1
XR30 net27 D VDD ppolyf_u r_width=1.2e-6 r_length=1e-6 m=1
XR31 E net28 VDD ppolyf_u r_width=1.2e-6 r_length=1e-6 m=1
XR32 net28 net29 VDD ppolyf_u r_width=1.2e-6 r_length=1e-6 m=1
XR33 net29 net30 VDD ppolyf_u r_width=1.2e-6 r_length=1e-6 m=1
XR34 net30 net31 VDD ppolyf_u r_width=1.2e-6 r_length=1e-6 m=1
XR35 net31 net32 VDD ppolyf_u r_width=1.2e-6 r_length=1e-6 m=1
XR36 net32 net33 VDD ppolyf_u r_width=1.2e-6 r_length=1e-6 m=1
XR37 net33 net34 VDD ppolyf_u r_width=1.2e-6 r_length=1e-6 m=1
XR38 net34 net35 VDD ppolyf_u r_width=1.2e-6 r_length=1e-6 m=1
XR39 net35 net36 VDD ppolyf_u r_width=1.2e-6 r_length=1e-6 m=1
XR40 net36 net37 VDD ppolyf_u r_width=1.2e-6 r_length=1e-6 m=1
XR41 net37 net38 VDD ppolyf_u r_width=1.2e-6 r_length=1e-6 m=1
XR42 net38 net39 VDD ppolyf_u r_width=1.2e-6 r_length=1e-6 m=1
XR43 net39 net40 VDD ppolyf_u r_width=1.2e-6 r_length=1e-6 m=1
XR44 net40 net41 VDD ppolyf_u r_width=1.2e-6 r_length=1e-6 m=1
XR45 net41 D VDD ppolyf_u r_width=1.2e-6 r_length=1e-6 m=1
XR46 E net42 VDD ppolyf_u r_width=1.2e-6 r_length=1e-6 m=1
XR47 net42 net43 VDD ppolyf_u r_width=1.2e-6 r_length=1e-6 m=1
XR48 net43 net44 VDD ppolyf_u r_width=1.2e-6 r_length=1e-6 m=1
XR49 net44 net45 VDD ppolyf_u r_width=1.2e-6 r_length=1e-6 m=1
XR50 net45 net46 VDD ppolyf_u r_width=1.2e-6 r_length=1e-6 m=1
XR51 net46 net47 VDD ppolyf_u r_width=1.2e-6 r_length=1e-6 m=1
XR52 net47 net48 VDD ppolyf_u r_width=1.2e-6 r_length=1e-6 m=1
XR53 net48 net49 VDD ppolyf_u r_width=1.2e-6 r_length=1e-6 m=1
XR54 net49 net50 VDD ppolyf_u r_width=1.2e-6 r_length=1e-6 m=1
XR55 net50 net51 VDD ppolyf_u r_width=1.2e-6 r_length=1e-6 m=1
XR56 net51 net52 VDD ppolyf_u r_width=1.2e-6 r_length=1e-6 m=1
XR57 net52 net53 VDD ppolyf_u r_width=1.2e-6 r_length=1e-6 m=1
XR58 net53 net54 VDD ppolyf_u r_width=1.2e-6 r_length=1e-6 m=1
XR59 net54 net55 VDD ppolyf_u r_width=1.2e-6 r_length=1e-6 m=1
XR60 net55 F VDD ppolyf_u r_width=1.2e-6 r_length=1e-6 m=1
XR61 G net56 VDD ppolyf_u r_width=1.2e-6 r_length=1e-6 m=1
XR62 net56 net57 VDD ppolyf_u r_width=1.2e-6 r_length=1e-6 m=1
XR63 net57 net58 VDD ppolyf_u r_width=1.2e-6 r_length=1e-6 m=1
XR64 net58 net59 VDD ppolyf_u r_width=1.2e-6 r_length=1e-6 m=1
XR65 net59 net60 VDD ppolyf_u r_width=1.2e-6 r_length=1e-6 m=1
XR66 net60 net61 VDD ppolyf_u r_width=1.2e-6 r_length=1e-6 m=1
XR67 net61 net62 VDD ppolyf_u r_width=1.2e-6 r_length=1e-6 m=1
XR68 net62 net63 VDD ppolyf_u r_width=1.2e-6 r_length=1e-6 m=1
XR69 net63 net64 VDD ppolyf_u r_width=1.2e-6 r_length=1e-6 m=1
XR70 net64 net65 VDD ppolyf_u r_width=1.2e-6 r_length=1e-6 m=1
XR71 net65 net66 VDD ppolyf_u r_width=1.2e-6 r_length=1e-6 m=1
XR72 net66 F VDD ppolyf_u r_width=1.2e-6 r_length=1e-6 m=1
XR73 G net67 VDD ppolyf_u r_width=1.2e-6 r_length=1e-6 m=1
XR74 net67 net68 VDD ppolyf_u r_width=1.2e-6 r_length=1e-6 m=1
XR75 net68 net69 VDD ppolyf_u r_width=1.2e-6 r_length=1e-6 m=1
XR76 net69 net70 VDD ppolyf_u r_width=1.2e-6 r_length=1e-6 m=1
XR77 net70 net71 VDD ppolyf_u r_width=1.2e-6 r_length=1e-6 m=1
XR78 net71 net72 VDD ppolyf_u r_width=1.2e-6 r_length=1e-6 m=1
XR79 net72 net73 VDD ppolyf_u r_width=1.2e-6 r_length=1e-6 m=1
XR80 net73 net74 VDD ppolyf_u r_width=1.2e-6 r_length=1e-6 m=1
XR81 net74 net75 VDD ppolyf_u r_width=1.2e-6 r_length=1e-6 m=1
XR82 net75 net76 VDD ppolyf_u r_width=1.2e-6 r_length=1e-6 m=1
XR83 net76 net77 VDD ppolyf_u r_width=1.2e-6 r_length=1e-6 m=1
XR84 net77 net78 VDD ppolyf_u r_width=1.2e-6 r_length=1e-6 m=1
XR85 net78 net79 VDD ppolyf_u r_width=1.2e-6 r_length=1e-6 m=1
XR86 net79 net80 VDD ppolyf_u r_width=1.2e-6 r_length=1e-6 m=1
XR87 net80 net81 VDD ppolyf_u r_width=1.2e-6 r_length=1e-6 m=1
XR88 net81 net82 VDD ppolyf_u r_width=1.2e-6 r_length=1e-6 m=1
XR89 net82 net83 VDD ppolyf_u r_width=1.2e-6 r_length=1e-6 m=1
XR90 net83 H VDD ppolyf_u r_width=1.2e-6 r_length=1e-6 m=1
XR91 VDD VDD VDD ppolyf_u r_width=1.2e-6 r_length=1e-6 m=1
XR92 VDD VDD VDD ppolyf_u r_width=1.2e-6 r_length=1e-6 m=1
XR93 VDD VDD VDD ppolyf_u r_width=1.2e-6 r_length=1e-6 m=1
XR94 VDD VDD VDD ppolyf_u r_width=1.2e-6 r_length=1e-6 m=1
XR95 VDD VDD VDD ppolyf_u r_width=1.2e-6 r_length=1e-6 m=1
XR96 VDD VDD VDD ppolyf_u r_width=1.2e-6 r_length=1e-6 m=1
XR97 VDD VDD VDD ppolyf_u r_width=1.2e-6 r_length=1e-6 m=1
XR98 VDD VDD VDD ppolyf_u r_width=1.2e-6 r_length=1e-6 m=1
XR99 B B VDD ppolyf_u r_width=1.2e-6 r_length=1e-6 m=1
XR103 H H VDD ppolyf_u r_width=1.2e-6 r_length=1e-6 m=1
XR105 A A VDD ppolyf_u r_width=1.2e-6 r_length=1e-6 m=1
XR100 G G VDD ppolyf_u r_width=1.2e-6 r_length=1e-6 m=1
XR101 E E VDD ppolyf_u r_width=1.2e-6 r_length=1e-6 m=1
XR102 E E VDD ppolyf_u r_width=1.2e-6 r_length=1e-6 m=1
.ends


* expanding   symbol:
*+  /home/shahid/GF180Projects/Tapeout/Xschem/Logic_Gates/Transmission_Gate_5x.sym # of pins=5
** sym_path: /home/shahid/GF180Projects/Tapeout/Xschem/Logic_Gates/Transmission_Gate_5x.sym
** sch_path: /home/shahid/GF180Projects/Tapeout/Xschem/Logic_Gates/Transmission_Gate_5x.sch
.subckt Transmission_Gate_5x VDD VSS CLK VOUT VIN
*.iopin VDD
*.iopin VSS
*.iopin VOUT
*.ipin CLK
*.iopin VIN
XM1 VOUT net1 VIN VDD pfet_03v3 L=0.28u W=5u nf=1 ad='int((nf+1)/2) * W/nf * 0.18u' as='int((nf+2)/2) * W/nf * 0.18u'
+ pd='2*int((nf+1)/2) * (W/nf + 0.18u)' ps='2*int((nf+2)/2) * (W/nf + 0.18u)' nrd='0.18u / W' nrs='0.18u / W'
+ sa=0 sb=0 sd=0 m=1
XM2 VOUT CLK VIN VSS nfet_03v3 L=0.28u W=3u nf=1 ad='int((nf+1)/2) * W/nf * 0.18u' as='int((nf+2)/2) * W/nf * 0.18u'
+ pd='2*int((nf+1)/2) * (W/nf + 0.18u)' ps='2*int((nf+2)/2) * (W/nf + 0.18u)' nrd='0.18u / W' nrs='0.18u / W'
+ sa=0 sb=0 sd=0 m=1
x1 VDD net1 CLK VSS Inverter
.ends


* expanding   symbol:
*+  /home/shahid/GF180Projects/Tapeout/Xschem/Folded_Cascode_Amplifier/Folded_Cascode_Diff.sym # of pins=8
** sym_path:
*+ /home/shahid/GF180Projects/Tapeout/Xschem/Folded_Cascode_Amplifier/Folded_Cascode_Diff.sym
** sch_path:
*+ /home/shahid/GF180Projects/Tapeout/Xschem/Folded_Cascode_Amplifier/Folded_Cascode_Diff.sch
.subckt Folded_Cascode_Diff VDD VSS VCM IN_N IN_P OUT_N OUT_P IBIAS1
*.iopin VDD
*.iopin VSS
*.iopin IN_N
*.iopin IN_P
*.iopin IBIAS1
*.iopin VCM
*.iopin OUT_N
*.iopin OUT_P
XM1 VPD VB1 VDD VDD pfet_03v3 L=0.28u W=50u nf=1 ad='int((nf+1)/2) * W/nf * 0.18u' as='int((nf+2)/2) * W/nf * 0.18u'
+ pd='2*int((nf+1)/2) * (W/nf + 0.18u)' ps='2*int((nf+2)/2) * (W/nf + 0.18u)' nrd='0.18u / W' nrs='0.18u / W'
+ sa=0 sb=0 sd=0 m=1
XM2 VND VB1 VDD VDD pfet_03v3 L=0.28u W=50u nf=1 ad='int((nf+1)/2) * W/nf * 0.18u' as='int((nf+2)/2) * W/nf * 0.18u'
+ pd='2*int((nf+1)/2) * (W/nf + 0.18u)' ps='2*int((nf+2)/2) * (W/nf + 0.18u)' nrd='0.18u / W' nrs='0.18u / W'
+ sa=0 sb=0 sd=0 m=1
XM3 OUT1 VB2 VND VDD pfet_03v3 L=0.28u W=50u nf=1 ad='int((nf+1)/2) * W/nf * 0.18u' as='int((nf+2)/2) * W/nf * 0.18u'
+ pd='2*int((nf+1)/2) * (W/nf + 0.18u)' ps='2*int((nf+2)/2) * (W/nf + 0.18u)' nrd='0.18u / W' nrs='0.18u / W'
+ sa=0 sb=0 sd=0 m=1
XM4 OUT2 VB2 VPD VDD pfet_03v3 L=0.28u W=50u nf=1 ad='int((nf+1)/2) * W/nf * 0.18u' as='int((nf+2)/2) * W/nf * 0.18u'
+ pd='2*int((nf+1)/2) * (W/nf + 0.18u)' ps='2*int((nf+2)/2) * (W/nf + 0.18u)' nrd='0.18u / W' nrs='0.18u / W'
+ sa=0 sb=0 sd=0 m=1
XM5 OUT2 VB3 IPD VSS nfet_03v3 L=0.28u W=46u nf=1 ad='int((nf+1)/2) * W/nf * 0.18u' as='int((nf+2)/2) * W/nf * 0.18u'
+ pd='2*int((nf+1)/2) * (W/nf + 0.18u)' ps='2*int((nf+2)/2) * (W/nf + 0.18u)' nrd='0.18u / W' nrs='0.18u / W'
+ sa=0 sb=0 sd=0 m=1
XM6 OUT1 VB3 IND VSS nfet_03v3 L=0.28u W=46u nf=1 ad='int((nf+1)/2) * W/nf * 0.18u' as='int((nf+2)/2) * W/nf * 0.18u'
+ pd='2*int((nf+1)/2) * (W/nf + 0.18u)' ps='2*int((nf+2)/2) * (W/nf + 0.18u)' nrd='0.18u / W' nrs='0.18u / W'
+ sa=0 sb=0 sd=0 m=1
XM7 IPD VB4 VSS VSS nfet_03v3 L=0.28u W=92u nf=1 ad='int((nf+1)/2) * W/nf * 0.18u' as='int((nf+2)/2) * W/nf * 0.18u'
+ pd='2*int((nf+1)/2) * (W/nf + 0.18u)' ps='2*int((nf+2)/2) * (W/nf + 0.18u)' nrd='0.18u / W' nrs='0.18u / W'
+ sa=0 sb=0 sd=0 m=1
XM8 IND VB4 VSS VSS nfet_03v3 L=0.28u W=92u nf=1 ad='int((nf+1)/2) * W/nf * 0.18u' as='int((nf+2)/2) * W/nf * 0.18u'
+ pd='2*int((nf+1)/2) * (W/nf + 0.18u)' ps='2*int((nf+2)/2) * (W/nf + 0.18u)' nrd='0.18u / W' nrs='0.18u / W'
+ sa=0 sb=0 sd=0 m=1
XM9 BD IBIAS VDD VDD pfet_03v3 L=0.56u W=100u nf=1 ad='int((nf+1)/2) * W/nf * 0.18u' as='int((nf+2)/2) * W/nf * 0.18u'
+ pd='2*int((nf+1)/2) * (W/nf + 0.18u)' ps='2*int((nf+2)/2) * (W/nf + 0.18u)' nrd='0.18u / W' nrs='0.18u / W'
+ sa=0 sb=0 sd=0 m=1
XM10 IPD IN_P BD VDD pfet_03v3 L=0.28u W=90u nf=1 ad='int((nf+1)/2) * W/nf * 0.18u' as='int((nf+2)/2) * W/nf * 0.18u'
+ pd='2*int((nf+1)/2) * (W/nf + 0.18u)' ps='2*int((nf+2)/2) * (W/nf + 0.18u)' nrd='0.18u / W' nrs='0.18u / W'
+ sa=0 sb=0 sd=0 m=1
XM11 IND IN_N BD VDD pfet_03v3 L=0.28u W=90u nf=1 ad='int((nf+1)/2) * W/nf * 0.18u' as='int((nf+2)/2) * W/nf * 0.18u'
+ pd='2*int((nf+1)/2) * (W/nf + 0.18u)' ps='2*int((nf+2)/2) * (W/nf + 0.18u)' nrd='0.18u / W' nrs='0.18u / W'
+ sa=0 sb=0 sd=0 m=1
XM53 VDD VDD VDD VDD pfet_03v3 L=0.56u W=25.04u nf=1 ad='int((nf+1)/2) * W/nf * 0.18u' as='int((nf+2)/2) * W/nf * 0.18u'
+ pd='2*int((nf+1)/2) * (W/nf + 0.18u)' ps='2*int((nf+2)/2) * (W/nf + 0.18u)' nrd='0.18u / W' nrs='0.18u / W'
+ sa=0 sb=0 sd=0 m=1
XM13 IBS IBIAS1 VDD VDD pfet_03v3 L=0.56u W=20u nf=1 ad='int((nf+1)/2) * W/nf * 0.18u' as='int((nf+2)/2) * W/nf * 0.18u'
+ pd='2*int((nf+1)/2) * (W/nf + 0.18u)' ps='2*int((nf+2)/2) * (W/nf + 0.18u)' nrd='0.18u / W' nrs='0.18u / W'
+ sa=0 sb=0 sd=0 m=1
XM14 IBS IBS VSS VSS nfet_03v3 L=1u W=2u nf=1 ad='int((nf+1)/2) * W/nf * 0.18u' as='int((nf+2)/2) * W/nf * 0.18u'
+ pd='2*int((nf+1)/2) * (W/nf + 0.18u)' ps='2*int((nf+2)/2) * (W/nf + 0.18u)' nrd='0.18u / W' nrs='0.18u / W'
+ sa=0 sb=0 sd=0 m=1
XM15 IBIAS IBS VSS VSS nfet_03v3 L=1u W=2u nf=1 ad='int((nf+1)/2) * W/nf * 0.18u' as='int((nf+2)/2) * W/nf * 0.18u'
+ pd='2*int((nf+1)/2) * (W/nf + 0.18u)' ps='2*int((nf+2)/2) * (W/nf + 0.18u)' nrd='0.18u / W' nrs='0.18u / W'
+ sa=0 sb=0 sd=0 m=1
XM16 IBIAS IBIAS VDD VDD pfet_03v3 L=0.56u W=20u nf=1 ad='int((nf+1)/2) * W/nf * 0.18u' as='int((nf+2)/2) * W/nf * 0.18u'
+ pd='2*int((nf+1)/2) * (W/nf + 0.18u)' ps='2*int((nf+2)/2) * (W/nf + 0.18u)' nrd='0.18u / W' nrs='0.18u / W'
+ sa=0 sb=0 sd=0 m=1
XM17 IBIAS1 IBIAS1 VDD VDD pfet_03v3 L=0.56u W=4u nf=1 ad='int((nf+1)/2) * W/nf * 0.18u' as='int((nf+2)/2) * W/nf * 0.18u'
+ pd='2*int((nf+1)/2) * (W/nf + 0.18u)' ps='2*int((nf+2)/2) * (W/nf + 0.18u)' nrd='0.18u / W' nrs='0.18u / W'
+ sa=0 sb=0 sd=0 m=1
XM19 VBIASN IBIAS1 VDD VDD pfet_03v3 L=0.56u W=4u nf=1 ad='int((nf+1)/2) * W/nf * 0.18u' as='int((nf+2)/2) * W/nf * 0.18u'
+ pd='2*int((nf+1)/2) * (W/nf + 0.18u)' ps='2*int((nf+2)/2) * (W/nf + 0.18u)' nrd='0.18u / W' nrs='0.18u / W'
+ sa=0 sb=0 sd=0 m=1
XM20 VBIASN VBIASN VSS VSS nfet_03v3 L=0.56u W=2u nf=1 ad='int((nf+1)/2) * W/nf * 0.18u' as='int((nf+2)/2) * W/nf * 0.18u'
+ pd='2*int((nf+1)/2) * (W/nf + 0.18u)' ps='2*int((nf+2)/2) * (W/nf + 0.18u)' nrd='0.18u / W' nrs='0.18u / W'
+ sa=0 sb=0 sd=0 m=1
XM26 IB2 VB2 VDD VDD pfet_03v3 L=1u W=0.5u nf=1 ad='int((nf+1)/2) * W/nf * 0.18u' as='int((nf+2)/2) * W/nf * 0.18u'
+ pd='2*int((nf+1)/2) * (W/nf + 0.18u)' ps='2*int((nf+2)/2) * (W/nf + 0.18u)' nrd='0.18u / W' nrs='0.18u / W'
+ sa=0 sb=0 sd=0 m=1
XM27 VB2 VB2 IB2 VDD pfet_03v3 L=0.28u W=8u nf=1 ad='int((nf+1)/2) * W/nf * 0.18u' as='int((nf+2)/2) * W/nf * 0.18u'
+ pd='2*int((nf+1)/2) * (W/nf + 0.18u)' ps='2*int((nf+2)/2) * (W/nf + 0.18u)' nrd='0.18u / W' nrs='0.18u / W'
+ sa=0 sb=0 sd=0 m=1
XM28 VB2 VBIASN VSS VSS nfet_03v3 L=0.56u W=1u nf=1 ad='int((nf+1)/2) * W/nf * 0.18u' as='int((nf+2)/2) * W/nf * 0.18u'
+ pd='2*int((nf+1)/2) * (W/nf + 0.18u)' ps='2*int((nf+2)/2) * (W/nf + 0.18u)' nrd='0.18u / W' nrs='0.18u / W'
+ sa=0 sb=0 sd=0 m=1
XM21 VCD VBIASN VSS VSS nfet_03v3 L=0.56u W=6u nf=1 ad='int((nf+1)/2) * W/nf * 0.18u' as='int((nf+2)/2) * W/nf * 0.18u'
+ pd='2*int((nf+1)/2) * (W/nf + 0.18u)' ps='2*int((nf+2)/2) * (W/nf + 0.18u)' nrd='0.18u / W' nrs='0.18u / W'
+ sa=0 sb=0 sd=0 m=1
XM22 VBM VCM VCD VSS nfet_03v3 L=0.28u W=30u nf=1 ad='int((nf+1)/2) * W/nf * 0.18u' as='int((nf+2)/2) * W/nf * 0.18u'
+ pd='2*int((nf+1)/2) * (W/nf + 0.18u)' ps='2*int((nf+2)/2) * (W/nf + 0.18u)' nrd='0.18u / W' nrs='0.18u / W'
+ sa=0 sb=0 sd=0 m=1
XM23 VB1 VOUT VCD VSS nfet_03v3 L=0.28u W=30u nf=1 ad='int((nf+1)/2) * W/nf * 0.18u' as='int((nf+2)/2) * W/nf * 0.18u'
+ pd='2*int((nf+1)/2) * (W/nf + 0.18u)' ps='2*int((nf+2)/2) * (W/nf + 0.18u)' nrd='0.18u / W' nrs='0.18u / W'
+ sa=0 sb=0 sd=0 m=1
XM24 VBM VBM VDD VDD pfet_03v3 L=0.28u W=8u nf=1 ad='int((nf+1)/2) * W/nf * 0.18u' as='int((nf+2)/2) * W/nf * 0.18u'
+ pd='2*int((nf+1)/2) * (W/nf + 0.18u)' ps='2*int((nf+2)/2) * (W/nf + 0.18u)' nrd='0.18u / W' nrs='0.18u / W'
+ sa=0 sb=0 sd=0 m=1
XM25 VB1 VB1 VDD VDD pfet_03v3 L=0.28u W=8u nf=1 ad='int((nf+1)/2) * W/nf * 0.18u' as='int((nf+2)/2) * W/nf * 0.18u'
+ pd='2*int((nf+1)/2) * (W/nf + 0.18u)' ps='2*int((nf+2)/2) * (W/nf + 0.18u)' nrd='0.18u / W' nrs='0.18u / W'
+ sa=0 sb=0 sd=0 m=1
XM18 IB5 IBIAS1 VDD VDD pfet_03v3 L=0.56u W=16u nf=1 ad='int((nf+1)/2) * W/nf * 0.18u' as='int((nf+2)/2) * W/nf * 0.18u'
+ pd='2*int((nf+1)/2) * (W/nf + 0.18u)' ps='2*int((nf+2)/2) * (W/nf + 0.18u)' nrd='0.18u / W' nrs='0.18u / W'
+ sa=0 sb=0 sd=0 m=1
XM29 IB5 IB5 VB4 VSS nfet_03v3 L=0.28u W=4u nf=1 ad='int((nf+1)/2) * W/nf * 0.18u' as='int((nf+2)/2) * W/nf * 0.18u'
+ pd='2*int((nf+1)/2) * (W/nf + 0.18u)' ps='2*int((nf+2)/2) * (W/nf + 0.18u)' nrd='0.18u / W' nrs='0.18u / W'
+ sa=0 sb=0 sd=0 m=1
XM30 VB4 VB4 VSS VSS nfet_03v3 L=0.28u W=14u nf=1 ad='int((nf+1)/2) * W/nf * 0.18u' as='int((nf+2)/2) * W/nf * 0.18u'
+ pd='2*int((nf+1)/2) * (W/nf + 0.18u)' ps='2*int((nf+2)/2) * (W/nf + 0.18u)' nrd='0.18u / W' nrs='0.18u / W'
+ sa=0 sb=0 sd=0 m=1
XM32 VB3 IBIAS1 VDD VDD pfet_03v3 L=0.56u W=8u nf=1 ad='int((nf+1)/2) * W/nf * 0.18u' as='int((nf+2)/2) * W/nf * 0.18u'
+ pd='2*int((nf+1)/2) * (W/nf + 0.18u)' ps='2*int((nf+2)/2) * (W/nf + 0.18u)' nrd='0.18u / W' nrs='0.18u / W'
+ sa=0 sb=0 sd=0 m=1
XM33 VB3 VB3 IB3 VSS nfet_03v3 L=0.28u W=7u nf=1 ad='int((nf+1)/2) * W/nf * 0.18u' as='int((nf+2)/2) * W/nf * 0.18u'
+ pd='2*int((nf+1)/2) * (W/nf + 0.18u)' ps='2*int((nf+2)/2) * (W/nf + 0.18u)' nrd='0.18u / W' nrs='0.18u / W'
+ sa=0 sb=0 sd=0 m=1
XM34 IB3 VB3 VSS VSS nfet_03v3 L=0.56u W=1u nf=1 ad='int((nf+1)/2) * W/nf * 0.18u' as='int((nf+2)/2) * W/nf * 0.18u'
+ pd='2*int((nf+1)/2) * (W/nf + 0.18u)' ps='2*int((nf+2)/2) * (W/nf + 0.18u)' nrd='0.18u / W' nrs='0.18u / W'
+ sa=0 sb=0 sd=0 m=1
XM36 OUT_P IBIAS2 VDD VDD pfet_03v3 L=0.28u W=84u nf=1 ad='int((nf+1)/2) * W/nf * 0.18u' as='int((nf+2)/2) * W/nf * 0.18u'
+ pd='2*int((nf+1)/2) * (W/nf + 0.18u)' ps='2*int((nf+2)/2) * (W/nf + 0.18u)' nrd='0.18u / W' nrs='0.18u / W'
+ sa=0 sb=0 sd=0 m=1
XM38 OUT_P OUT2 VSS VSS nfet_03v3 L=0.28u W=72u nf=1 ad='int((nf+1)/2) * W/nf * 0.18u' as='int((nf+2)/2) * W/nf * 0.18u'
+ pd='2*int((nf+1)/2) * (W/nf + 0.18u)' ps='2*int((nf+2)/2) * (W/nf + 0.18u)' nrd='0.18u / W' nrs='0.18u / W'
+ sa=0 sb=0 sd=0 m=1
XM39 OUT_P IBIAS2 VDD VDD pfet_03v3 L=0.28u W=84u nf=1 ad='int((nf+1)/2) * W/nf * 0.18u' as='int((nf+2)/2) * W/nf * 0.18u'
+ pd='2*int((nf+1)/2) * (W/nf + 0.18u)' ps='2*int((nf+2)/2) * (W/nf + 0.18u)' nrd='0.18u / W' nrs='0.18u / W'
+ sa=0 sb=0 sd=0 m=1
XM40 OUT_N IBIAS2 VDD VDD pfet_03v3 L=0.28u W=84u nf=1 ad='int((nf+1)/2) * W/nf * 0.18u' as='int((nf+2)/2) * W/nf * 0.18u'
+ pd='2*int((nf+1)/2) * (W/nf + 0.18u)' ps='2*int((nf+2)/2) * (W/nf + 0.18u)' nrd='0.18u / W' nrs='0.18u / W'
+ sa=0 sb=0 sd=0 m=1
XM41 OUT_N OUT1 VSS VSS nfet_03v3 L=0.28u W=72u nf=1 ad='int((nf+1)/2) * W/nf * 0.18u' as='int((nf+2)/2) * W/nf * 0.18u'
+ pd='2*int((nf+1)/2) * (W/nf + 0.18u)' ps='2*int((nf+2)/2) * (W/nf + 0.18u)' nrd='0.18u / W' nrs='0.18u / W'
+ sa=0 sb=0 sd=0 m=1
XM42 OUT_N IBIAS2 VDD VDD pfet_03v3 L=0.28u W=84u nf=1 ad='int((nf+1)/2) * W/nf * 0.18u' as='int((nf+2)/2) * W/nf * 0.18u'
+ pd='2*int((nf+1)/2) * (W/nf + 0.18u)' ps='2*int((nf+2)/2) * (W/nf + 0.18u)' nrd='0.18u / W' nrs='0.18u / W'
+ sa=0 sb=0 sd=0 m=1
XM43 OUT_N OUT1 VSS VSS nfet_03v3 L=0.28u W=72u nf=1 ad='int((nf+1)/2) * W/nf * 0.18u' as='int((nf+2)/2) * W/nf * 0.18u'
+ pd='2*int((nf+1)/2) * (W/nf + 0.18u)' ps='2*int((nf+2)/2) * (W/nf + 0.18u)' nrd='0.18u / W' nrs='0.18u / W'
+ sa=0 sb=0 sd=0 m=1
XM44 OUT_P OUT2 VSS VSS nfet_03v3 L=0.28u W=72u nf=1 ad='int((nf+1)/2) * W/nf * 0.18u' as='int((nf+2)/2) * W/nf * 0.18u'
+ pd='2*int((nf+1)/2) * (W/nf + 0.18u)' ps='2*int((nf+2)/2) * (W/nf + 0.18u)' nrd='0.18u / W' nrs='0.18u / W'
+ sa=0 sb=0 sd=0 m=1
XM45 OUT_N IBIAS2 VDD VDD pfet_03v3 L=0.28u W=84u nf=1 ad='int((nf+1)/2) * W/nf * 0.18u' as='int((nf+2)/2) * W/nf * 0.18u'
+ pd='2*int((nf+1)/2) * (W/nf + 0.18u)' ps='2*int((nf+2)/2) * (W/nf + 0.18u)' nrd='0.18u / W' nrs='0.18u / W'
+ sa=0 sb=0 sd=0 m=1
XM46 OUT_P IBIAS2 VDD VDD pfet_03v3 L=0.28u W=84u nf=1 ad='int((nf+1)/2) * W/nf * 0.18u' as='int((nf+2)/2) * W/nf * 0.18u'
+ pd='2*int((nf+1)/2) * (W/nf + 0.18u)' ps='2*int((nf+2)/2) * (W/nf + 0.18u)' nrd='0.18u / W' nrs='0.18u / W'
+ sa=0 sb=0 sd=0 m=1
XM47 OUT_P IBIAS2 VDD VDD pfet_03v3 L=0.28u W=84u nf=1 ad='int((nf+1)/2) * W/nf * 0.18u' as='int((nf+2)/2) * W/nf * 0.18u'
+ pd='2*int((nf+1)/2) * (W/nf + 0.18u)' ps='2*int((nf+2)/2) * (W/nf + 0.18u)' nrd='0.18u / W' nrs='0.18u / W'
+ sa=0 sb=0 sd=0 m=1
XM48 OUT_N IBIAS2 VDD VDD pfet_03v3 L=0.28u W=84u nf=1 ad='int((nf+1)/2) * W/nf * 0.18u' as='int((nf+2)/2) * W/nf * 0.18u'
+ pd='2*int((nf+1)/2) * (W/nf + 0.18u)' ps='2*int((nf+2)/2) * (W/nf + 0.18u)' nrd='0.18u / W' nrs='0.18u / W'
+ sa=0 sb=0 sd=0 m=1
XM50 OUT_N OUT1 VSS VSS nfet_03v3 L=0.28u W=72u nf=1 ad='int((nf+1)/2) * W/nf * 0.18u' as='int((nf+2)/2) * W/nf * 0.18u'
+ pd='2*int((nf+1)/2) * (W/nf + 0.18u)' ps='2*int((nf+2)/2) * (W/nf + 0.18u)' nrd='0.18u / W' nrs='0.18u / W'
+ sa=0 sb=0 sd=0 m=1
XM51 OUT_P OUT2 VSS VSS nfet_03v3 L=0.28u W=72u nf=1 ad='int((nf+1)/2) * W/nf * 0.18u' as='int((nf+2)/2) * W/nf * 0.18u'
+ pd='2*int((nf+1)/2) * (W/nf + 0.18u)' ps='2*int((nf+2)/2) * (W/nf + 0.18u)' nrd='0.18u / W' nrs='0.18u / W'
+ sa=0 sb=0 sd=0 m=1
XM52 OUT_P IBIAS2 VDD VDD pfet_03v3 L=0.28u W=84u nf=1 ad='int((nf+1)/2) * W/nf * 0.18u' as='int((nf+2)/2) * W/nf * 0.18u'
+ pd='2*int((nf+1)/2) * (W/nf + 0.18u)' ps='2*int((nf+2)/2) * (W/nf + 0.18u)' nrd='0.18u / W' nrs='0.18u / W'
+ sa=0 sb=0 sd=0 m=1
XM54 OUT_N IBIAS2 VDD VDD pfet_03v3 L=0.28u W=84u nf=1 ad='int((nf+1)/2) * W/nf * 0.18u' as='int((nf+2)/2) * W/nf * 0.18u'
+ pd='2*int((nf+1)/2) * (W/nf + 0.18u)' ps='2*int((nf+2)/2) * (W/nf + 0.18u)' nrd='0.18u / W' nrs='0.18u / W'
+ sa=0 sb=0 sd=0 m=1
XM55 OUT_N IBIAS2 VDD VDD pfet_03v3 L=0.28u W=84u nf=1 ad='int((nf+1)/2) * W/nf * 0.18u' as='int((nf+2)/2) * W/nf * 0.18u'
+ pd='2*int((nf+1)/2) * (W/nf + 0.18u)' ps='2*int((nf+2)/2) * (W/nf + 0.18u)' nrd='0.18u / W' nrs='0.18u / W'
+ sa=0 sb=0 sd=0 m=1
XM57 OUT_P IBIAS2 VDD VDD pfet_03v3 L=0.28u W=84u nf=1 ad='int((nf+1)/2) * W/nf * 0.18u' as='int((nf+2)/2) * W/nf * 0.18u'
+ pd='2*int((nf+1)/2) * (W/nf + 0.18u)' ps='2*int((nf+2)/2) * (W/nf + 0.18u)' nrd='0.18u / W' nrs='0.18u / W'
+ sa=0 sb=0 sd=0 m=1
XM65 VSS VSS VSS VSS nfet_03v3 L=0.28u W=36u nf=1 ad='int((nf+1)/2) * W/nf * 0.18u' as='int((nf+2)/2) * W/nf * 0.18u'
+ pd='2*int((nf+1)/2) * (W/nf + 0.18u)' ps='2*int((nf+2)/2) * (W/nf + 0.18u)' nrd='0.18u / W' nrs='0.18u / W'
+ sa=0 sb=0 sd=0 m=1
XM66 VSS VSS VSS VSS nfet_03v3 L=0.28u W=36u nf=1 ad='int((nf+1)/2) * W/nf * 0.18u' as='int((nf+2)/2) * W/nf * 0.18u'
+ pd='2*int((nf+1)/2) * (W/nf + 0.18u)' ps='2*int((nf+2)/2) * (W/nf + 0.18u)' nrd='0.18u / W' nrs='0.18u / W'
+ sa=0 sb=0 sd=0 m=1
XM67 VSS VSS VSS VSS nfet_03v3 L=0.28u W=36u nf=1 ad='int((nf+1)/2) * W/nf * 0.18u' as='int((nf+2)/2) * W/nf * 0.18u'
+ pd='2*int((nf+1)/2) * (W/nf + 0.18u)' ps='2*int((nf+2)/2) * (W/nf + 0.18u)' nrd='0.18u / W' nrs='0.18u / W'
+ sa=0 sb=0 sd=0 m=1
XM68 IBIAS2 IBIAS2 VDD VDD pfet_03v3 L=0.28u W=84u nf=1 ad='int((nf+1)/2) * W/nf * 0.18u' as='int((nf+2)/2) * W/nf * 0.18u'
+ pd='2*int((nf+1)/2) * (W/nf + 0.18u)' ps='2*int((nf+2)/2) * (W/nf + 0.18u)' nrd='0.18u / W' nrs='0.18u / W'
+ sa=0 sb=0 sd=0 m=1
XM69 IBIAS2 IBIAS2 VDD VDD pfet_03v3 L=0.28u W=84u nf=1 ad='int((nf+1)/2) * W/nf * 0.18u' as='int((nf+2)/2) * W/nf * 0.18u'
+ pd='2*int((nf+1)/2) * (W/nf + 0.18u)' ps='2*int((nf+2)/2) * (W/nf + 0.18u)' nrd='0.18u / W' nrs='0.18u / W'
+ sa=0 sb=0 sd=0 m=1
XM70 IVS IBIAS3 VDD VDD pfet_03v3 L=0.28u W=84u nf=1 ad='int((nf+1)/2) * W/nf * 0.18u' as='int((nf+2)/2) * W/nf * 0.18u'
+ pd='2*int((nf+1)/2) * (W/nf + 0.18u)' ps='2*int((nf+2)/2) * (W/nf + 0.18u)' nrd='0.18u / W' nrs='0.18u / W'
+ sa=0 sb=0 sd=0 m=1
XM71 IVS IVS VSS VSS nfet_03v3 L=1u W=20u nf=1 ad='int((nf+1)/2) * W/nf * 0.18u' as='int((nf+2)/2) * W/nf * 0.18u'
+ pd='2*int((nf+1)/2) * (W/nf + 0.18u)' ps='2*int((nf+2)/2) * (W/nf + 0.18u)' nrd='0.18u / W' nrs='0.18u / W'
+ sa=0 sb=0 sd=0 m=1
XM72 IBIAS2 IVS VSS VSS nfet_03v3 L=1u W=20u nf=1 ad='int((nf+1)/2) * W/nf * 0.18u' as='int((nf+2)/2) * W/nf * 0.18u'
+ pd='2*int((nf+1)/2) * (W/nf + 0.18u)' ps='2*int((nf+2)/2) * (W/nf + 0.18u)' nrd='0.18u / W' nrs='0.18u / W'
+ sa=0 sb=0 sd=0 m=1
XM73 IVS IBIAS3 VDD VDD pfet_03v3 L=0.28u W=84u nf=1 ad='int((nf+1)/2) * W/nf * 0.18u' as='int((nf+2)/2) * W/nf * 0.18u'
+ pd='2*int((nf+1)/2) * (W/nf + 0.18u)' ps='2*int((nf+2)/2) * (W/nf + 0.18u)' nrd='0.18u / W' nrs='0.18u / W'
+ sa=0 sb=0 sd=0 m=1
XM76 IBIAS3 IBIAS3 VDD VDD pfet_03v3 L=0.28u W=24u nf=1 ad='int((nf+1)/2) * W/nf * 0.18u' as='int((nf+2)/2) * W/nf * 0.18u'
+ pd='2*int((nf+1)/2) * (W/nf + 0.18u)' ps='2*int((nf+2)/2) * (W/nf + 0.18u)' nrd='0.18u / W' nrs='0.18u / W'
+ sa=0 sb=0 sd=0 m=1
XM77 IB4 IBIAS4 VDD VDD pfet_03v3 L=0.28u W=24u nf=1 ad='int((nf+1)/2) * W/nf * 0.18u' as='int((nf+2)/2) * W/nf * 0.18u'
+ pd='2*int((nf+1)/2) * (W/nf + 0.18u)' ps='2*int((nf+2)/2) * (W/nf + 0.18u)' nrd='0.18u / W' nrs='0.18u / W'
+ sa=0 sb=0 sd=0 m=1
XM78 IB4 IB4 VSS VSS nfet_03v3 L=1u W=10u nf=1 ad='int((nf+1)/2) * W/nf * 0.18u' as='int((nf+2)/2) * W/nf * 0.18u'
+ pd='2*int((nf+1)/2) * (W/nf + 0.18u)' ps='2*int((nf+2)/2) * (W/nf + 0.18u)' nrd='0.18u / W' nrs='0.18u / W'
+ sa=0 sb=0 sd=0 m=1
XM79 IBIAS3 IB4 VSS VSS nfet_03v3 L=1u W=10u nf=1 ad='int((nf+1)/2) * W/nf * 0.18u' as='int((nf+2)/2) * W/nf * 0.18u'
+ pd='2*int((nf+1)/2) * (W/nf + 0.18u)' ps='2*int((nf+2)/2) * (W/nf + 0.18u)' nrd='0.18u / W' nrs='0.18u / W'
+ sa=0 sb=0 sd=0 m=1
XM80 IBIAS4 IBIAS4 VDD VDD pfet_03v3 L=0.28u W=5u nf=1 ad='int((nf+1)/2) * W/nf * 0.18u' as='int((nf+2)/2) * W/nf * 0.18u'
+ pd='2*int((nf+1)/2) * (W/nf + 0.18u)' ps='2*int((nf+2)/2) * (W/nf + 0.18u)' nrd='0.18u / W' nrs='0.18u / W'
+ sa=0 sb=0 sd=0 m=1
XM81 IBIAS4 VBIASN VSS VSS nfet_03v3 L=1u W=2u nf=1 ad='int((nf+1)/2) * W/nf * 0.18u' as='int((nf+2)/2) * W/nf * 0.18u'
+ pd='2*int((nf+1)/2) * (W/nf + 0.18u)' ps='2*int((nf+2)/2) * (W/nf + 0.18u)' nrd='0.18u / W' nrs='0.18u / W'
+ sa=0 sb=0 sd=0 m=1
XR21 VDD VDD VDD ppolyf_u r_width=4e-6 r_length=6.2e-6 m=1
XR1 net2 OUT_P VDD ppolyf_u r_width=1e-6 r_length=5e-6 m=1
XR2 net2 net1 VDD ppolyf_u r_width=1e-6 r_length=5e-6 m=1
XR3 net3 net1 VDD ppolyf_u r_width=1e-6 r_length=5e-6 m=1
XR4 net3 net4 VDD ppolyf_u r_width=1e-6 r_length=5e-6 m=1
XR5 net5 net4 VDD ppolyf_u r_width=1e-6 r_length=5e-6 m=1
XR6 net5 net6 VDD ppolyf_u r_width=1e-6 r_length=5e-6 m=1
XR7 net7 net6 VDD ppolyf_u r_width=1e-6 r_length=5e-6 m=1
XR8 net7 net8 VDD ppolyf_u r_width=1e-6 r_length=5e-6 m=1
XR9 net9 net8 VDD ppolyf_u r_width=1e-6 r_length=5e-6 m=1
XR10 net9 VOUT VDD ppolyf_u r_width=1e-6 r_length=5e-6 m=1
XR11 net11 OUT_N VDD ppolyf_u r_width=1e-6 r_length=5e-6 m=1
XR12 net11 net10 VDD ppolyf_u r_width=1e-6 r_length=5e-6 m=1
XR13 net12 net10 VDD ppolyf_u r_width=1e-6 r_length=5e-6 m=1
XR14 net12 net13 VDD ppolyf_u r_width=1e-6 r_length=5e-6 m=1
XR15 net14 net13 VDD ppolyf_u r_width=1e-6 r_length=5e-6 m=1
XR16 net14 net15 VDD ppolyf_u r_width=1e-6 r_length=5e-6 m=1
XR17 net16 net15 VDD ppolyf_u r_width=1e-6 r_length=5e-6 m=1
XR18 net16 net17 VDD ppolyf_u r_width=1e-6 r_length=5e-6 m=1
XR19 net18 net17 VDD ppolyf_u r_width=1e-6 r_length=5e-6 m=1
XR20 net18 VOUT VDD ppolyf_u r_width=1e-6 r_length=5e-6 m=1
XR22 VOUT1 OUT1 VDD ppolyf_u r_width=1e-6 r_length=6.2e-6 m=1
XR23 VOUT2 OUT2 VDD ppolyf_u r_width=1e-6 r_length=6.2e-6 m=1
XR24 VOUT1 OUT1 VDD ppolyf_u r_width=1e-6 r_length=6.2e-6 m=1
XR25 VOUT2 OUT2 VDD ppolyf_u r_width=1e-6 r_length=6.2e-6 m=1
XR26 VOUT1 OUT1 VDD ppolyf_u r_width=1e-6 r_length=6.2e-6 m=1
XR27 VOUT2 OUT2 VDD ppolyf_u r_width=1e-6 r_length=6.2e-6 m=1
XR28 VOUT1 OUT1 VDD ppolyf_u r_width=1e-6 r_length=6.2e-6 m=1
XR29 VOUT2 OUT2 VDD ppolyf_u r_width=1e-6 r_length=6.2e-6 m=1
XR30 VDD VDD VDD ppolyf_u r_width=4e-6 r_length=5e-6 m=1
XC1 VOUT1 OUT_N cap_mim_2f0_m4m5_noshield c_width=21e-6 c_length=21e-6 m=1
XC2 VOUT2 OUT_P cap_mim_2f0_m4m5_noshield c_width=21e-6 c_length=21e-6 m=1
XC4 VOUT1 OUT_N cap_mim_2f0_m4m5_noshield c_width=21e-6 c_length=21e-6 m=1
XC5 VOUT2 OUT_P cap_mim_2f0_m4m5_noshield c_width=21e-6 c_length=21e-6 m=1
XM82 OUT_N IBIAS2 VDD VDD pfet_03v3 L=0.28u W=84u nf=1 ad='int((nf+1)/2) * W/nf * 0.18u' as='int((nf+2)/2) * W/nf * 0.18u'
+ pd='2*int((nf+1)/2) * (W/nf + 0.18u)' ps='2*int((nf+2)/2) * (W/nf + 0.18u)' nrd='0.18u / W' nrs='0.18u / W'
+ sa=0 sb=0 sd=0 m=1
XM83 OUT_P IBIAS2 VDD VDD pfet_03v3 L=0.28u W=84u nf=1 ad='int((nf+1)/2) * W/nf * 0.18u' as='int((nf+2)/2) * W/nf * 0.18u'
+ pd='2*int((nf+1)/2) * (W/nf + 0.18u)' ps='2*int((nf+2)/2) * (W/nf + 0.18u)' nrd='0.18u / W' nrs='0.18u / W'
+ sa=0 sb=0 sd=0 m=1
XM64 VSS VSS VSS VSS nfet_03v3 L=1u W=16u nf=1 ad='int((nf+1)/2) * W/nf * 0.18u' as='int((nf+2)/2) * W/nf * 0.18u'
+ pd='2*int((nf+1)/2) * (W/nf + 0.18u)' ps='2*int((nf+2)/2) * (W/nf + 0.18u)' nrd='0.18u / W' nrs='0.18u / W'
+ sa=0 sb=0 sd=0 m=1
XM75 VSS VSS VSS VSS nfet_03v3 L=0.28u W=69.12u nf=1 ad='int((nf+1)/2) * W/nf * 0.18u' as='int((nf+2)/2) * W/nf * 0.18u'
+ pd='2*int((nf+1)/2) * (W/nf + 0.18u)' ps='2*int((nf+2)/2) * (W/nf + 0.18u)' nrd='0.18u / W' nrs='0.18u / W'
+ sa=0 sb=0 sd=0 m=1
XM12 VDD VDD VDD VDD pfet_03v3 L=0.28u W=45u nf=1 ad='int((nf+1)/2) * W/nf * 0.18u' as='int((nf+2)/2) * W/nf * 0.18u'
+ pd='2*int((nf+1)/2) * (W/nf + 0.18u)' ps='2*int((nf+2)/2) * (W/nf + 0.18u)' nrd='0.18u / W' nrs='0.18u / W'
+ sa=0 sb=0 sd=0 m=1
XM31 VDD VDD VDD VDD pfet_03v3 L=0.28u W=25.04u nf=1 ad='int((nf+1)/2) * W/nf * 0.18u' as='int((nf+2)/2) * W/nf * 0.18u'
+ pd='2*int((nf+1)/2) * (W/nf + 0.18u)' ps='2*int((nf+2)/2) * (W/nf + 0.18u)' nrd='0.18u / W' nrs='0.18u / W'
+ sa=0 sb=0 sd=0 m=1
XM35 VDD VDD VDD VDD pfet_03v3 L=0.28u W=25.04u nf=1 ad='int((nf+1)/2) * W/nf * 0.18u' as='int((nf+2)/2) * W/nf * 0.18u'
+ pd='2*int((nf+1)/2) * (W/nf + 0.18u)' ps='2*int((nf+2)/2) * (W/nf + 0.18u)' nrd='0.18u / W' nrs='0.18u / W'
+ sa=0 sb=0 sd=0 m=1
XM37 VDD VDD VDD VDD pfet_03v3 L=0.28u W=24u nf=1 ad='int((nf+1)/2) * W/nf * 0.18u' as='int((nf+2)/2) * W/nf * 0.18u'