* NGSPICE file created from PLL_TOP_MUX_2_flat.ext - technology: gf180mcuC

.subckt pex_PLL_TOP_MUX_2 UP_INPUT VDD DN_INPUT VSS PRE_SCALAR UP F_IN DN ITAIL DIV_OUT S1 ITAIL1 VCTRL_IN S6 VCTRL2 S2 OUT
+ S3 S4 OUTB LF_OFFCHIP S5
X0 a_42928_8770.t1 a_43228_8148.t1 VDD.t376 ppolyf_u r_width=1.1u r_length=2.6u
X1 PFD_T2_0.INV_mag_1.OUT PFD_T2_0.INV_mag_1.IN.t17 VSS.t577 VSS.t576 nfet_03v3 ad=0.22p pd=1.88u as=0.22p ps=1.88u w=0.5u l=0.5u
X2 PFD_T2_0.Buffer_V_2_0.IN PFD_T2_0.INV_mag_1.IN.t18 VDD.t344 VDD.t343 pfet_03v3 ad=0.13p pd=1.02u as=0.13p ps=1.02u w=0.5u l=0.5u
X3 PFD_T2_0.FDIV a_20903_8375.t6 DIV_OUT.t4 VDD.t430 pfet_03v3 ad=0.218p pd=1.36u as=0.218p ps=1.36u w=0.84u l=0.5u
X4 OUTB a_50528_5246.t24 VDD.t648 VDD.t603 pfet_03v3 ad=0.728p pd=3.32u as=0.728p ps=3.32u w=2.8u l=0.5u
X5 CP_1_0.VCTRL ITAIL.t16 a_32731_10265.t7 VDD.t428 pfet_03v3 ad=0.158p pd=1.64u as=0.158p ps=1.64u w=0.28u l=0.56u
X6 VSS.t516 VSS.t515 VSS.t516 VSS.t211 nfet_03v3 ad=0.728p pd=3.32u as=0 ps=0 w=2.8u l=0.5u
X7 VCO_DFF_C_0.VCO_C_0.INV_2_5.OUT VCO_DFF_C_0.VCO_C_0.INV_2_5.IN.t31 VSS.t307 VSS.t306 nfet_03v3 ad=0.13p pd=1.02u as=0.22p ps=1.88u w=0.5u l=0.5u
X8 ITAIL ITAIL.t14 VDD.t427 VDD.t426 pfet_03v3 ad=0.158p pd=1.64u as=0.158p ps=1.64u w=0.28u l=0.56u
X9 VCO_DFF_C_0.VCO_C_0.INV_2_0.IN VCO_DFF_C_0.VCO_C_0.INV_2_5.IN.t32 VDD.t614 VDD.t402 pfet_03v3 ad=0.13p pd=1.02u as=0.13p ps=1.02u w=0.5u l=0.84u
X10 VSS VCTRL2.t1 a_25706_n567.t53 VSS.t724 nfet_03v3 ad=0.13p pd=1.02u as=0.13p ps=1.02u w=0.5u l=0.84u
X11 VSS VCO_DFF_C_0.VCO_C_0.INV_2_3.IN.t31 VCO_DFF_C_0.VCO_C_0.INV_2_3.OUT.t3 VSS.t536 nfet_03v3 ad=0.22p pd=1.88u as=0.13p ps=1.02u w=0.5u l=0.5u
X12 VSS a_50630_6066.t6 a_50528_5246.t7 VSS.t258 nfet_03v3 ad=0.728p pd=3.32u as=0.728p ps=3.32u w=2.8u l=0.5u
X13 VSS a_50708_569.t24 OUT.t31 VSS.t298 nfet_03v3 ad=0.728p pd=3.32u as=0.728p ps=3.32u w=2.8u l=0.5u
X14 VDD S1.t0 A_MUX_1.Tr_Gate_1.CLK.t11 VDD.t769 pfet_03v3 ad=0.13p pd=1.02u as=0.13p ps=1.02u w=0.5u l=0.5u
X15 a_43528_12082.t0 a_43828_11460.t0 VDD.t133 ppolyf_u r_width=1.1u r_length=2.6u
X16 VDD a_32467_10269.t6 a_32731_10265.t2 VDD.t1 pfet_03v3 ad=0.308p pd=2.28u as=0.308p ps=2.28u w=0.7u l=0.56u
X17 VDD VCO_DFF_C_0.VCO_C_0.INV_2_0.IN.t31 VCO_DFF_C_0.VCO_C_0.INV_2_5.IN.t10 VDD.t383 pfet_03v3 ad=0.13p pd=1.02u as=0.22p ps=1.88u w=0.5u l=0.84u
X18 RES_74k_1.M.t1 VSS.t705 cap_mim_2f0_m4m5_noshield c_width=31u c_length=29u
X19 VDD S2.t0 A_MUX_3.Tr_Gate_1.CLK.t11 VDD.t763 pfet_03v3 ad=0.13p pd=1.02u as=0.13p ps=1.02u w=0.5u l=0.5u
X20 VSS PFD_T2_0.Buffer_V_2_0.IN.t11 a_25557_8739.t0 VSS.t325 nfet_03v3 ad=0.13p pd=1.02u as=0.22p ps=1.88u w=0.5u l=0.5u
X21 VSS a_50528_5246.t25 OUTB.t31 VSS.t33 nfet_03v3 ad=0.728p pd=3.32u as=0.728p ps=3.32u w=2.8u l=0.5u
X22 VSS.t514 VSS.t513 VSS.t514 VSS.t214 nfet_03v3 ad=0.728p pd=3.32u as=0 ps=0 w=2.8u l=0.5u
X23 VSS.t512 VSS.t510 VSS.t512 VSS.t511 nfet_03v3 ad=0.22p pd=1.88u as=0 ps=0 w=0.5u l=0.84u
X24 RES_74k_1.P.t45 RES_74k_1.P.t46 VDD.t272 ppolyf_u r_width=1.1u r_length=2.6u
X25 OUTB a_50528_5246.t26 VDD.t649 VDD.t213 pfet_03v3 ad=0.728p pd=3.32u as=0.728p ps=3.32u w=2.8u l=0.5u
X26 CP_1_0.VCTRL A_MUX_0.Tr_Gate_1.CLK.t12 VCO_DFF_C_0.VCTRL.t15 VSS.t765 nfet_03v3 ad=0.218p pd=1.36u as=0.37p ps=2.56u w=0.84u l=0.5u
X27 RES_74k_1.M.t1 VSS.t704 cap_mim_2f0_m4m5_noshield c_width=31u c_length=29u
X28 VDD a_22967_8787.t4 PFD_T2_0.INV_mag_1.IN.t4 VDD.t182 pfet_03v3 ad=0.13p pd=1.02u as=0.13p ps=1.02u w=0.5u l=0.5u
X29 RES_74k_1.P.t81 RES_74k_1.P.t82 VDD.t376 ppolyf_u r_width=1.1u r_length=2.6u
X30 VSS VCTRL2.t3 a_34443_2598.t49 VSS.t729 nfet_03v3 ad=0.13p pd=1.02u as=0.13p ps=1.02u w=0.5u l=0.84u
X31 VSS a_50810_1389.t6 a_50708_569.t5 VSS.t50 nfet_03v3 ad=0.728p pd=3.32u as=0.728p ps=3.32u w=2.8u l=0.5u
X32 PRE_SCALAR A_MUX_1.Tr_Gate_1.CLK.t12 PFD_T2_0.FIN.t10 VSS.t343 nfet_03v3 ad=0.37p pd=2.56u as=0.37p ps=2.56u w=0.84u l=0.5u
X33 VSS S6.t0 A_MUX_2.Tr_Gate_1.CLK.t3 VSS.t85 nfet_03v3 ad=0.22p pd=1.88u as=0.13p ps=1.02u w=0.5u l=0.5u
X34 VSS VCO_DFF_C_0.VCO_C_0.INV_2_3.OUT.t12 VCO_DFF_C_0.VCO_C_0.OUTB.t3 VSS.t912 nfet_03v3 ad=0.22p pd=1.88u as=0.13p ps=1.02u w=0.5u l=0.5u
X35 RES_74k_1.M.t1 VSS.t703 cap_mim_2f0_m4m5_noshield c_width=31u c_length=29u
X36 VSS a_18508_8715.t6 PFD_T2_0.FDIV.t1 VDD.t68 pfet_03v3 ad=0.218p pd=1.36u as=0.218p ps=1.36u w=0.84u l=0.5u
X37 RES_74k_1.M.t2 VSS.t778 cap_mim_2f0_m4m5_noshield c_width=31u c_length=29u
X38 VCO_DFF_C_0.DFF_3_mag_0.Tr_Gate_0.IN VCO_DFF_C_0.OUT.t6 VSS.t144 VSS.t143 nfet_03v3 ad=0.13p pd=1.02u as=0.13p ps=1.02u w=0.5u l=0.5u
X39 VDD a_22967_8787.t5 PFD_T2_0.INV_mag_1.IN.t10 VDD.t832 pfet_03v3 ad=0.13p pd=1.02u as=0.13p ps=1.02u w=0.5u l=0.5u
X40 A_MUX_2.Tr_Gate_1.CLK S6.t1 VDD.t207 VDD.t206 pfet_03v3 ad=0.13p pd=1.02u as=0.22p ps=1.88u w=0.5u l=0.5u
X41 a_43828_11254.t1 a_43528_10632.t0 VDD.t133 ppolyf_u r_width=1.1u r_length=2.6u
X42 VCO_DFF_C_0.VCO_C_0.INV_2_2.IN VCO_DFF_C_0.VCTRL.t16 VDD.t859 VDD.t672 pfet_03v3 ad=0.22p pd=1.88u as=0.13p ps=1.02u w=0.5u l=0.84u
X43 VSS VCO_DFF_C_0.DFF_3_mag_0.Tr_Gate_0.OUT.t16 VCO_DFF_C_0.OUT VSS.t249 nfet_03v3 ad=0.22p pd=1.88u as=0.13p ps=1.02u w=0.5u l=0.5u
X44 VSS PFD_T2_0.INV_mag_1.OUT.t3 a_22879_10704.t1 VSS.t528 nfet_03v3 ad=0.22p pd=1.88u as=0.13p ps=1.02u w=0.5u l=0.5u
X45 VDD a_32467_10269.t7 a_32731_10265.t1 VDD.t1 pfet_03v3 ad=0.308p pd=2.28u as=0.308p ps=2.28u w=0.7u l=0.56u
X46 PFD_T2_0.INV_mag_1.OUT PFD_T2_0.INV_mag_1.IN.t19 VDD.t342 VDD.t341 pfet_03v3 ad=0.13p pd=1.02u as=0.22p ps=1.88u w=0.5u l=0.5u
X47 OUTB a_50528_5246.t27 VDD.t650 VDD.t598 pfet_03v3 ad=0.728p pd=3.32u as=0.728p ps=3.32u w=2.8u l=0.5u
X48 VDD.t996 VDD.t994 VDD.t996 VDD.t995 pfet_03v3 ad=0.22p pd=1.88u as=0 ps=0 w=0.5u l=0.84u
X49 VCO_DFF_C_0.VCO_C_0.INV_2_3.IN VCO_DFF_C_0.VCO_C_0.INV_2_2.IN.t31 VDD.t152 VDD.t93 pfet_03v3 ad=0.22p pd=1.88u as=0.13p ps=1.02u w=0.5u l=0.84u
X50 VDD.t993 VDD.t992 VDD.t993 VDD.t934 pfet_03v3 ad=0.22p pd=1.88u as=0 ps=0 w=0.5u l=0.84u
X51 RES_74k_1.M.t1 VSS.t702 cap_mim_2f0_m4m5_noshield c_width=31u c_length=29u
X52 RES_74k_1.M.t1 VSS.t701 cap_mim_2f0_m4m5_noshield c_width=31u c_length=29u
X53 OUTB a_50528_5246.t28 VDD.t651 VDD.t482 pfet_03v3 ad=0.728p pd=3.32u as=0.728p ps=3.32u w=2.8u l=0.5u
X54 VSS.t509 VSS.t508 VSS.t509 VSS.t424 nfet_03v3 ad=0.22p pd=1.88u as=0 ps=0 w=0.5u l=0.84u
X55 VCO_DFF_C_0.VCO_C_0.INV_2_3.IN VCO_DFF_C_0.VCO_C_0.INV_2_5.OUT.t12 a_34443_2598.t10 VSS.t172 nfet_03v3 ad=0.22p pd=1.88u as=0.13p ps=1.02u w=0.5u l=0.84u
X56 VCO_DFF_C_0.VCO_C_0.INV_2_5.IN VCO_DFF_C_0.VCO_C_0.INV_2_0.IN.t32 VDD.t510 VDD.t402 pfet_03v3 ad=0.13p pd=1.02u as=0.13p ps=1.02u w=0.5u l=0.84u
X57 VDD a_50810_1389.t8 a_50708_569.t1 VDD.t32 pfet_03v3 ad=0.728p pd=3.32u as=0.728p ps=3.32u w=2.8u l=0.5u
X58 RES_74k_1.M.t1 VSS.t700 cap_mim_2f0_m4m5_noshield c_width=31u c_length=29u
X59 OUT a_50708_569.t25 VDD.t607 VDD.t74 pfet_03v3 ad=0.728p pd=3.32u as=0.728p ps=3.32u w=2.8u l=0.5u
X60 RES_74k_1.M.t2 VSS.t777 cap_mim_2f0_m4m5_noshield c_width=31u c_length=29u
X61 VSS UP_OUT.t16 a_32939_9624.t4 VSS.t918 nfet_03v3 ad=0.158p pd=1.64u as=92.8f ps=0.92u w=0.28u l=0.56u
X62 VCO_DFF_C_0.VCO_C_0.INV_2_5.IN VCO_DFF_C_0.VCTRL.t17 VDD.t860 VDD.t666 pfet_03v3 ad=0.13p pd=1.02u as=0.13p ps=1.02u w=0.5u l=0.84u
X63 VDD VCO_DFF_C_0.VCO_C_0.INV_2_5.IN.t33 VCO_DFF_C_0.VCO_C_0.INV_2_0.IN.t20 VDD.t383 pfet_03v3 ad=0.13p pd=1.02u as=0.22p ps=1.88u w=0.5u l=0.84u
X64 VDD.t991 VDD.t989 VDD.t991 VDD.t990 pfet_03v3 ad=0.22p pd=1.88u as=0 ps=0 w=0.5u l=0.84u
X65 OUT a_50708_569.t26 VDD.t608 VDD.t38 pfet_03v3 ad=0.728p pd=3.32u as=0.728p ps=3.32u w=2.8u l=0.5u
X66 RES_74k_1.M.t1 VSS.t699 cap_mim_2f0_m4m5_noshield c_width=31u c_length=29u
X67 VSS a_50528_5246.t29 OUTB.t30 VSS.t292 nfet_03v3 ad=0.728p pd=3.32u as=0.728p ps=3.32u w=2.8u l=0.5u
X68 VCO_DFF_C_0.VCO_C_0.INV_2_2.IN VCO_DFF_C_0.VCO_C_0.INV_2_0.OUT.t12 a_34443_2598.t0 VSS.t5 nfet_03v3 ad=0.22p pd=1.88u as=0.13p ps=1.02u w=0.5u l=0.84u
X69 OUT a_50708_569.t27 VDD.t609 VDD.t76 pfet_03v3 ad=0.728p pd=3.32u as=0.728p ps=3.32u w=2.8u l=0.5u
X70 UP_OUT A_MUX_3.Tr_Gate_1.CLK.t12 UP1.t3 VSS.t245 nfet_03v3 ad=0.37p pd=2.56u as=0.37p ps=2.56u w=0.84u l=0.5u
X71 VDD VCO_DFF_C_0.VCO_C_0.INV_2_5.IN.t34 VCO_DFF_C_0.VCO_C_0.INV_2_0.IN.t19 VDD.t519 pfet_03v3 ad=0.13p pd=1.02u as=0.22p ps=1.88u w=0.5u l=0.84u
X72 VSS VCTRL2.t6 a_34443_2598.t47 VSS.t736 nfet_03v3 ad=0.13p pd=1.02u as=0.13p ps=1.02u w=0.5u l=0.84u
X73 VSS.t507 VSS.t506 VSS.t507 VSS.t499 nfet_03v3 ad=0.22p pd=1.88u as=0 ps=0 w=0.5u l=0.84u
X74 RES_74k_1.M.t1 VSS.t698 cap_mim_2f0_m4m5_noshield c_width=31u c_length=29u
X75 VSS VCO_DFF_C_0.DFF_3_mag_0.Tr_Gate_0.CLK.t12 a_44716_n517.t1 VSS.t148 nfet_03v3 ad=0.218p pd=1.36u as=0.37p ps=2.56u w=0.84u l=0.5u
X76 VCO_DFF_C_0.VCO_C_0.OUT VCO_DFF_C_0.VCO_C_0.INV_2_4.IN.t12 VSS.t223 VSS.t222 nfet_03v3 ad=0.13p pd=1.02u as=0.13p ps=1.02u w=0.5u l=0.5u
X77 VSS a_50708_569.t28 OUT.t30 VSS.t301 nfet_03v3 ad=0.728p pd=3.32u as=0.728p ps=3.32u w=2.8u l=0.5u
X78 VDD VCO_DFF_C_0.VCO_C_0.INV_2_4.IN.t13 VCO_DFF_C_0.VCO_C_0.OUT.t11 VDD.t503 pfet_03v3 ad=0.22p pd=1.88u as=0.13p ps=1.02u w=0.5u l=0.5u
X79 RES_74k_1.M.t1 VSS.t697 cap_mim_2f0_m4m5_noshield c_width=31u c_length=29u
X80 RES_74k_1.P.t59 RES_74k_1.P.t60 VDD.t31 ppolyf_u r_width=1.1u r_length=2.6u
X81 VSS.t505 VSS.t503 VSS.t505 VSS.t504 nfet_03v3 ad=0.22p pd=1.88u as=0 ps=0 w=0.5u l=0.84u
X82 A_MUX_2.Tr_Gate_1.CLK S6.t2 VSS.t946 VSS.t945 nfet_03v3 ad=0.13p pd=1.02u as=0.22p ps=1.88u w=0.5u l=0.5u
X83 VSS.t502 VSS.t501 VSS.t502 VSS.t435 nfet_03v3 ad=0.22p pd=1.88u as=0 ps=0 w=0.5u l=0.84u
X84 VCO_DFF_C_0.VCO_C_0.INV_2_2.IN VCO_DFF_C_0.VCO_C_0.INV_2_3.IN.t32 VDD.t713 VDD.t180 pfet_03v3 ad=0.13p pd=1.02u as=0.13p ps=1.02u w=0.5u l=0.84u
X85 RES_74k_1.M.t1 VSS.t696 cap_mim_2f0_m4m5_noshield c_width=31u c_length=29u
X86 VCO_DFF_C_0.VCO_C_0.INV_2_5.IN VCO_DFF_C_0.VCTRL.t18 VDD.t861 VDD.t669 pfet_03v3 ad=0.22p pd=1.88u as=0.13p ps=1.02u w=0.5u l=0.84u
X87 RES_74k_1.M.t1 VSS.t695 cap_mim_2f0_m4m5_noshield c_width=31u c_length=29u
X88 a_44728_10426.t1 a_44428_9804.t1 VDD.t31 ppolyf_u r_width=1.1u r_length=2.6u
X89 VDD a_50528_5246.t30 OUTB.t91 VDD.t464 pfet_03v3 ad=0.728p pd=3.32u as=0.728p ps=3.32u w=2.8u l=0.5u
X90 OUTB a_50528_5246.t31 VDD.t654 VDD.t603 pfet_03v3 ad=0.728p pd=3.32u as=0.728p ps=3.32u w=2.8u l=0.5u
X91 VSS A_MUX_3.Tr_Gate_1.CLK.t13 a_27480_10186.t1 VSS.t71 nfet_03v3 ad=0.218p pd=1.36u as=0.37p ps=2.56u w=0.84u l=0.5u
X92 VDD S4.t0 A_MUX_0.Tr_Gate_1.CLK.t4 VDD.t281 pfet_03v3 ad=0.13p pd=1.02u as=0.13p ps=1.02u w=0.5u l=0.5u
X93 a_42628_9598.t1 a_42928_8976.t1 VDD.t5 ppolyf_u r_width=1.1u r_length=2.6u
X94 VSS.t500 VSS.t498 VSS.t500 VSS.t499 nfet_03v3 ad=0.22p pd=1.88u as=0 ps=0 w=0.5u l=0.84u
X95 a_44728_12082.t0 a_44428_11460.t0 VDD.t31 ppolyf_u r_width=1.1u r_length=2.6u
X96 OUTB a_50528_5246.t32 VDD.t655 VDD.t605 pfet_03v3 ad=0.728p pd=3.32u as=1.23p ps=6.48u w=2.8u l=0.5u
X97 VDD VCO_DFF_C_0.OUTB.t21 a_50630_6066.t2 VDD.t467 pfet_03v3 ad=0.728p pd=3.32u as=0.728p ps=3.32u w=2.8u l=0.5u
X98 VCO_DFF_C_0.VCO_C_0.INV_2_0.OUT VCO_DFF_C_0.VCO_C_0.INV_2_0.IN.t33 VSS.t228 VSS.t227 nfet_03v3 ad=0.13p pd=1.02u as=0.13p ps=1.02u w=0.5u l=0.5u
X99 RES_74k_1.M.t3 VSS.t336 cap_mim_2f0_m4m5_noshield c_width=31u c_length=29u
X100 VCO_DFF_C_0.DFF_3_mag_0.INV_2_1.IN VCO_DFF_C_0.VCO_C_0.OUTB.t12 VCO_DFF_C_0.DFF_3_mag_0.INV_2_5.OUT.t15 VSS.t28 nfet_03v3 ad=0.37p pd=2.56u as=0.218p ps=1.36u w=0.84u l=0.5u
X101 VDD a_50708_569.t29 OUT.t92 VDD.t223 pfet_03v3 ad=0.728p pd=3.32u as=0.728p ps=3.32u w=2.8u l=0.5u
X102 OUTB a_50528_5246.t33 VSS.t322 VSS.t169 nfet_03v3 ad=0.728p pd=3.32u as=0.728p ps=3.32u w=2.8u l=0.5u
X103 RES_74k_1.M.t1 VSS.t694 cap_mim_2f0_m4m5_noshield c_width=31u c_length=29u
X104 OUTB a_50528_5246.t34 VDD.t656 VDD.t488 pfet_03v3 ad=0.728p pd=3.32u as=0.728p ps=3.32u w=2.8u l=0.5u
X105 RES_74k_1.M.t1 VSS.t693 cap_mim_2f0_m4m5_noshield c_width=31u c_length=29u
X106 RES_74k_1.M.t1 VSS.t692 cap_mim_2f0_m4m5_noshield c_width=31u c_length=29u
X107 PFD_T2_0.INV_mag_0.OUT PFD_T2_0.INV_mag_0.IN.t18 VDD.t1088 VDD.t341 pfet_03v3 ad=0.13p pd=1.02u as=0.22p ps=1.88u w=0.5u l=0.5u
X108 VDD a_50810_1389.t10 a_50708_569.t3 VDD.t35 pfet_03v3 ad=0.728p pd=3.32u as=0.728p ps=3.32u w=2.8u l=0.5u
X109 VCO_DFF_C_0.VCO_C_0.INV_2_0.IN VCO_DFF_C_0.VCO_C_0.OUT.t13 a_25706_n567.t11 VSS.t17 nfet_03v3 ad=0.13p pd=1.02u as=0.13p ps=1.02u w=0.5u l=0.84u
X110 a_44428_11254.t1 a_44728_10632.t0 VDD.t31 ppolyf_u r_width=1.1u r_length=2.6u
X111 VSS VCO_DFF_C_0.OUT.t7 VCO_DFF_C_0.DFF_3_mag_0.Tr_Gate_0.IN.t6 VSS.t249 nfet_03v3 ad=0.22p pd=1.88u as=0.13p ps=1.02u w=0.5u l=0.5u
X112 VSS VCTRL2.t8 a_25706_n567.t50 VSS.t740 nfet_03v3 ad=0.13p pd=1.02u as=0.13p ps=1.02u w=0.5u l=0.84u
X113 RES_74k_1.M.t3 VSS.t335 cap_mim_2f0_m4m5_noshield c_width=31u c_length=29u
X114 VSS PFD_T2_0.INV_mag_0.IN.t19 a_23836_10693.t2 VSS.t989 nfet_03v3 ad=0.13p pd=1.02u as=0.22p ps=1.88u w=0.5u l=0.5u
X115 a_45928_10426.t1 a_46228_9804.t0 VDD.t131 ppolyf_u r_width=1.1u r_length=2.6u
X116 VCO_DFF_C_0.VCO_C_0.INV_2_3.OUT VCO_DFF_C_0.VCO_C_0.INV_2_3.IN.t33 VDD.t714 VDD.t319 pfet_03v3 ad=0.13p pd=1.02u as=0.22p ps=1.88u w=0.5u l=0.5u
X117 RES_74k_1.M.t1 VSS.t691 cap_mim_2f0_m4m5_noshield c_width=31u c_length=29u
X118 VDD a_50528_5246.t35 OUTB.t87 VDD.t494 pfet_03v3 ad=0.728p pd=3.32u as=0.728p ps=3.32u w=2.8u l=0.5u
X119 A_MUX_1.Tr_Gate_1.CLK S1.t1 VSS.t988 VSS.t987 nfet_03v3 ad=0.13p pd=1.02u as=0.13p ps=1.02u w=0.5u l=0.5u
X120 a_44428_9598.t0 a_44128_8976.t0 VDD.t4 ppolyf_u r_width=1.1u r_length=2.6u
X121 VDD S4.t1 a_42763_5679.t5 VDD.t367 pfet_03v3 ad=0.218p pd=1.36u as=0.218p ps=1.36u w=0.84u l=0.5u
X122 VCO_DFF_C_0.VCO_C_0.OUTB VCO_DFF_C_0.VCO_C_0.INV_2_3.OUT.t13 VDD.t778 VDD.t753 pfet_03v3 ad=0.13p pd=1.02u as=0.22p ps=1.88u w=0.5u l=0.5u
X123 RES_74k_1.M.t2 VSS.t776 cap_mim_2f0_m4m5_noshield c_width=31u c_length=29u
X124 VSS.t497 VSS.t496 VSS.t497 VSS.t46 nfet_03v3 ad=0.728p pd=3.32u as=0 ps=0 w=2.8u l=0.5u
X125 VCO_DFF_C_0.DFF_3_mag_0.Tr_Gate_0.CLK VCO_DFF_C_0.VCO_C_0.OUTB.t13 VSS.t30 VSS.t29 nfet_03v3 ad=0.13p pd=1.02u as=0.13p ps=1.02u w=0.5u l=0.5u
X126 VDD a_50708_569.t30 OUT.t91 VDD.t32 pfet_03v3 ad=0.728p pd=3.32u as=0.728p ps=3.32u w=2.8u l=0.5u
X127 VCO_DFF_C_0.VCO_C_0.INV_2_0.IN VCO_DFF_C_0.VCO_C_0.INV_2_5.IN.t35 VDD.t619 VDD.t386 pfet_03v3 ad=0.22p pd=1.88u as=0.13p ps=1.02u w=0.5u l=0.84u
X128 RES_74k_1.M.t1 VSS.t690 cap_mim_2f0_m4m5_noshield c_width=31u c_length=29u
X129 a_45928_8770.t1 a_45628_8148.t0 VDD.t243 ppolyf_u r_width=1.1u r_length=2.6u
X130 RES_74k_1.M.t1 VSS.t689 cap_mim_2f0_m4m5_noshield c_width=31u c_length=29u
X131 VCO_DFF_C_0.OUTB a_41879_1284.t6 VCO_DFF_C_0.DFF_3_mag_0.INV_2_1.IN.t9 VDD.t49 pfet_03v3 ad=0.37p pd=2.56u as=0.218p ps=1.36u w=0.84u l=0.5u
X132 a_42628_8770.t1 a_42628_8148.t1 VDD.t269 ppolyf_u r_width=1.1u r_length=2.6u
X133 OUTB a_50528_5246.t36 VSS.t324 VSS.t323 nfet_03v3 ad=0.728p pd=3.32u as=0.728p ps=3.32u w=2.8u l=0.5u
X134 CP_1_0.VCTRL ITAIL.t19 a_32731_10265.t6 VDD.t426 pfet_03v3 ad=0.158p pd=1.64u as=0.158p ps=1.64u w=0.28u l=0.56u
X135 VSS.t495 VSS.t494 VSS.t495 VSS.t173 nfet_03v3 ad=0.728p pd=3.32u as=0 ps=0 w=2.8u l=0.5u
X136 VCO_DFF_C_0.VCO_C_0.INV_2_0.IN VCO_DFF_C_0.VCO_C_0.OUT.t14 a_25706_n567.t12 VSS.t78 nfet_03v3 ad=0.22p pd=1.88u as=0.13p ps=1.02u w=0.5u l=0.84u
X137 RES_74k_1.P.t17 RES_74k_1.P.t18 VDD.t22 ppolyf_u r_width=1.1u r_length=2.6u
X138 RES_74k_1.M.t1 VSS.t688 cap_mim_2f0_m4m5_noshield c_width=31u c_length=29u
X139 OUT a_50708_569.t31 VSS.t305 VSS.t304 nfet_03v3 ad=0.728p pd=3.32u as=0.728p ps=3.32u w=2.8u l=0.5u
X140 VSS VCO_DFF_C_0.VCO_C_0.INV_2_4.IN.t14 VCO_DFF_C_0.VCO_C_0.OUT.t2 VSS.t224 nfet_03v3 ad=0.22p pd=1.88u as=0.13p ps=1.02u w=0.5u l=0.5u
X141 VCO_DFF_C_0.VCO_C_0.INV_2_2.IN VCO_DFF_C_0.VCO_C_0.INV_2_3.IN.t34 VDD.t715 VDD.t93 pfet_03v3 ad=0.22p pd=1.88u as=0.13p ps=1.02u w=0.5u l=0.84u
X142 VDD A_MUX_2.Tr_Gate_1.CLK.t12 a_20903_8375.t4 VDD.t709 pfet_03v3 ad=0.218p pd=1.36u as=0.218p ps=1.36u w=0.84u l=0.5u
X143 VDD.t988 VDD.t987 VDD.t988 VDD.t958 pfet_03v3 ad=0.22p pd=1.88u as=0 ps=0 w=0.5u l=0.84u
X144 VSS VCTRL2.t9 a_25706_n567.t49 VSS.t740 nfet_03v3 ad=0.13p pd=1.02u as=0.13p ps=1.02u w=0.5u l=0.84u
X145 RES_74k_1.M.t1 VSS.t687 cap_mim_2f0_m4m5_noshield c_width=31u c_length=29u
X146 VCO_DFF_C_0.DFF_3_mag_0.INV_2_5.OUT VCO_DFF_C_0.DFF_3_mag_0.INV_2_1.OUT.t20 VDD.t328 VDD.t327 pfet_03v3 ad=0.13p pd=1.02u as=0.13p ps=1.02u w=0.5u l=0.5u
X147 RES_74k_1.P.t79 RES_74k_1.P.t80 VDD.t243 ppolyf_u r_width=1.1u r_length=2.6u
X148 VSS VCO_DFF_C_0.OUT.t8 VCO_DFF_C_0.OUTB.t8 VSS.t252 nfet_03v3 ad=0.13p pd=1.02u as=0.13p ps=1.02u w=0.5u l=0.5u
X149 A_MUX_6.Tr_Gate_1.CLK S5.t0 VDD.t271 VDD.t270 pfet_03v3 ad=0.13p pd=1.02u as=0.13p ps=1.02u w=0.5u l=0.5u
X150 DN_OUT A_MUX_4.Tr_Gate_1.CLK.t14 DN1.t3 VSS.t121 nfet_03v3 ad=0.37p pd=2.56u as=0.37p ps=2.56u w=0.84u l=0.5u
X151 RES_74k_1.P.t85 RES_74k_1.P.t86 VDD.t269 ppolyf_u r_width=1.1u r_length=2.6u
X152 VDD.t986 VDD.t985 VDD.t986 VDD.t666 pfet_03v3 ad=0.22p pd=1.88u as=0 ps=0 w=0.5u l=0.84u
X153 PFD_T2_0.INV_mag_1.IN a_22967_8787.t6 VDD.t24 VDD.t23 pfet_03v3 ad=0.13p pd=1.02u as=0.22p ps=1.88u w=0.5u l=0.5u
X154 A_MUX_1.Tr_Gate_1.CLK S1.t2 VDD.t774 VDD.t773 pfet_03v3 ad=0.13p pd=1.02u as=0.22p ps=1.88u w=0.5u l=0.5u
X155 VDD a_50528_5246.t37 OUTB.t86 VDD.t464 pfet_03v3 ad=0.728p pd=3.32u as=0.728p ps=3.32u w=2.8u l=0.5u
X156 VCO_DFF_C_0.VCO_C_0.INV_2_2.IN VCO_DFF_C_0.VCO_C_0.INV_2_3.IN.t35 VDD.t716 VDD.t174 pfet_03v3 ad=0.22p pd=1.88u as=0.13p ps=1.02u w=0.5u l=0.84u
X157 VDD S2.t1 A_MUX_3.Tr_Gate_1.CLK.t10 VDD.t69 pfet_03v3 ad=0.22p pd=1.88u as=0.13p ps=1.02u w=0.5u l=0.5u
X158 VCO_DFF_C_0.VCO_C_0.INV_2_3.OUT VCO_DFF_C_0.VCO_C_0.INV_2_3.IN.t36 VDD.t717 VDD.t301 pfet_03v3 ad=0.13p pd=1.02u as=0.13p ps=1.02u w=0.5u l=0.5u
X159 VDD A_MUX_0.Tr_Gate_1.CLK.t13 a_45158_5339.t5 VDD.t333 pfet_03v3 ad=0.37p pd=2.56u as=0.218p ps=1.36u w=0.84u l=0.5u
X160 VDD VCO_DFF_C_0.VCO_C_0.INV_2_0.IN.t34 VCO_DFF_C_0.VCO_C_0.INV_2_5.IN.t12 VDD.t398 pfet_03v3 ad=0.13p pd=1.02u as=0.13p ps=1.02u w=0.5u l=0.84u
X161 a_45328_12082.t1 a_45628_11460.t0 VDD.t22 ppolyf_u r_width=1.1u r_length=2.6u
X162 VDD a_50528_5246.t38 OUTB.t85 VDD.t431 pfet_03v3 ad=0.728p pd=3.32u as=0.728p ps=3.32u w=2.8u l=0.5u
X163 PRE_SCALAR A_MUX_1.Tr_Gate_1.CLK.t13 PFD_T2_0.FIN.t9 VSS.t344 nfet_03v3 ad=0.218p pd=1.36u as=0.37p ps=2.56u w=0.84u l=0.5u
X164 VDD a_50528_5246.t39 OUTB.t84 VDD.t467 pfet_03v3 ad=0.728p pd=3.32u as=0.728p ps=3.32u w=2.8u l=0.5u
X165 F_IN S1.t3 PFD_T2_0.FIN.t15 VSS.t562 nfet_03v3 ad=0.218p pd=1.36u as=0.37p ps=2.56u w=0.84u l=0.5u
X166 A_MUX_4.Tr_Gate_1.CLK S3.t0 VDD.t841 VDD.t284 pfet_03v3 ad=0.13p pd=1.02u as=0.22p ps=1.88u w=0.5u l=0.5u
X167 VDD a_50708_569.t32 OUT.t90 VDD.t223 pfet_03v3 ad=0.728p pd=3.32u as=0.728p ps=3.32u w=2.8u l=0.5u
X168 A_MUX_4.Tr_Gate_1.CLK S3.t1 VSS.t761 VSS.t760 nfet_03v3 ad=0.13p pd=1.02u as=0.13p ps=1.02u w=0.5u l=0.5u
X169 a_44128_8770.t1 a_43828_8148.t1 VDD.t242 ppolyf_u r_width=1.1u r_length=2.6u
X170 VDD.t984 VDD.t982 VDD.t984 VDD.t983 pfet_03v3 ad=0.22p pd=1.88u as=0 ps=0 w=0.5u l=0.84u
X171 VDD a_50708_569.t33 OUT.t89 VDD.t807 pfet_03v3 ad=0.728p pd=3.32u as=0.728p ps=3.32u w=2.8u l=0.5u
X172 VDD S1.t4 A_MUX_1.Tr_Gate_1.CLK.t9 VDD.t775 pfet_03v3 ad=0.22p pd=1.88u as=0.13p ps=1.02u w=0.5u l=0.5u
X173 PFD_T2_0.FIN a_20945_11785.t6 PRE_SCALAR.t1 VDD.t163 pfet_03v3 ad=0.218p pd=1.36u as=0.218p ps=1.36u w=0.84u l=0.5u
X174 VDD a_50528_5246.t40 OUTB.t83 VDD.t434 pfet_03v3 ad=0.728p pd=3.32u as=0.728p ps=3.32u w=2.8u l=0.5u
X175 VSS VCTRL2.t10 a_25706_n567.t48 VSS.t745 nfet_03v3 ad=0.22p pd=1.88u as=0.13p ps=1.02u w=0.5u l=0.84u
X176 VCO_DFF_C_0.VCO_C_0.INV_2_4.IN VCO_DFF_C_0.VCO_C_0.INV_2_2.IN.t32 VSS.t55 VSS.t54 nfet_03v3 ad=0.13p pd=1.02u as=0.22p ps=1.88u w=0.5u l=0.5u
X177 RES_74k_1.P.t97 VSS.t281 cap_mim_2f0_m4m5_noshield c_width=30u c_length=30u
X178 RES_74k_1.M.t1 VSS.t686 cap_mim_2f0_m4m5_noshield c_width=31u c_length=29u
X179 CP_1_0.VCTRL ITAIL1.t8 a_32939_9624.t5 VSS.t330 nfet_03v3 ad=0.158p pd=1.64u as=92.8f ps=0.92u w=0.28u l=0.56u
X180 VDD A_MUX_4.Tr_Gate_1.CLK.t15 a_27423_7180.t4 VDD.t540 pfet_03v3 ad=0.37p pd=2.56u as=0.218p ps=1.36u w=0.84u l=0.5u
X181 RES_74k_1.M.t1 VSS.t685 cap_mim_2f0_m4m5_noshield c_width=31u c_length=29u
X182 VDD a_50708_569.t34 OUT.t88 VDD.t35 pfet_03v3 ad=0.728p pd=3.32u as=0.728p ps=3.32u w=2.8u l=0.5u
X183 VDD VCO_DFF_C_0.VCO_C_0.INV_2_5.IN.t36 VCO_DFF_C_0.VCO_C_0.INV_2_5.OUT.t11 VDD.t390 pfet_03v3 ad=0.13p pd=1.02u as=0.13p ps=1.02u w=0.5u l=0.5u
X184 a_45628_11254.t0 a_45328_10632.t0 VDD.t22 ppolyf_u r_width=1.1u r_length=2.6u
X185 VDD A_MUX_0.Tr_Gate_1.CLK.t14 a_45158_5339.t4 VDD.t334 pfet_03v3 ad=0.218p pd=1.36u as=0.218p ps=1.36u w=0.84u l=0.5u
X186 VSS.t493 VSS.t492 VSS.t493 VSS.t103 nfet_03v3 ad=0.728p pd=3.32u as=0 ps=0 w=2.8u l=0.5u
X187 PFD_T2_0.FIN a_20945_11785.t7 PRE_SCALAR.t2 VDD.t164 pfet_03v3 ad=0.218p pd=1.36u as=0.37p ps=2.56u w=0.84u l=0.5u
X188 VCO_DFF_C_0.VCO_C_0.INV_2_3.IN VCO_DFF_C_0.VCO_C_0.INV_2_5.OUT.t13 a_34443_2598.t9 VSS.t931 nfet_03v3 ad=0.13p pd=1.02u as=0.13p ps=1.02u w=0.5u l=0.84u
X189 VCO_DFF_C_0.DFF_3_mag_0.INV_2_1.IN VCO_DFF_C_0.VCO_C_0.OUTB.t15 VCO_DFF_C_0.DFF_3_mag_0.INV_2_5.OUT.t14 VSS.t15 nfet_03v3 ad=0.37p pd=2.56u as=0.37p ps=2.56u w=0.84u l=0.5u
X190 VDD VCO_DFF_C_0.DFF_3_mag_0.Tr_Gate_0.CLK.t16 a_41879_1284.t3 VDD.t49 pfet_03v3 ad=0.37p pd=2.56u as=0.218p ps=1.36u w=0.84u l=0.5u
X191 VDD a_50708_569.t35 OUT.t87 VDD.t208 pfet_03v3 ad=0.728p pd=3.32u as=0.728p ps=3.32u w=2.8u l=0.5u
X192 VCO_DFF_C_0.VCO_C_0.INV_2_4.IN VCO_DFF_C_0.VCO_C_0.INV_2_2.IN.t33 VDD.t89 VDD.t88 pfet_03v3 ad=0.13p pd=1.02u as=0.13p ps=1.02u w=0.5u l=0.5u
X193 VDD.t981 VDD.t980 VDD.t981 VDD.t934 pfet_03v3 ad=0.22p pd=1.88u as=0 ps=0 w=0.5u l=0.84u
X194 RES_74k_1.M.t1 VSS.t684 cap_mim_2f0_m4m5_noshield c_width=31u c_length=29u
X195 VDD VCO_DFF_C_0.OUT.t9 VCO_DFF_C_0.DFF_3_mag_0.Tr_Gate_0.IN.t15 VDD.t9 pfet_03v3 ad=0.22p pd=1.88u as=0.13p ps=1.02u w=0.5u l=0.5u
X196 VDD a_22966_11778.t4 PFD_T2_0.INV_mag_0.IN.t6 VDD.t897 pfet_03v3 ad=0.13p pd=1.02u as=0.13p ps=1.02u w=0.5u l=0.5u
X197 RES_74k_1.P.t75 RES_74k_1.P.t76 VDD.t242 ppolyf_u r_width=1.1u r_length=2.6u
X198 VSS VCO_DFF_C_0.VCO_C_0.INV_2_2.IN.t34 VCO_DFF_C_0.VCO_C_0.INV_2_4.IN.t2 VSS.t56 nfet_03v3 ad=0.22p pd=1.88u as=0.13p ps=1.02u w=0.5u l=0.5u
X199 RES_74k_1.M.t1 VSS.t683 cap_mim_2f0_m4m5_noshield c_width=31u c_length=29u
X200 VSS S1.t5 A_MUX_1.Tr_Gate_1.CLK.t2 VSS.t563 nfet_03v3 ad=0.13p pd=1.02u as=0.13p ps=1.02u w=0.5u l=0.5u
X201 VCO_DFF_C_0.VCO_C_0.INV_2_5.OUT VCO_DFF_C_0.VCO_C_0.INV_2_5.IN.t37 VDD.t622 VDD.t396 pfet_03v3 ad=0.13p pd=1.02u as=0.22p ps=1.88u w=0.5u l=0.5u
X202 VCO_DFF_C_0.VCO_C_0.INV_2_0.OUT VCO_DFF_C_0.VCO_C_0.INV_2_0.IN.t35 VDD.t514 VDD.t513 pfet_03v3 ad=0.13p pd=1.02u as=0.22p ps=1.88u w=0.5u l=0.5u
X203 VDD VCO_DFF_C_0.VCO_C_0.INV_2_3.IN.t37 VCO_DFF_C_0.VCO_C_0.INV_2_3.OUT.t9 VDD.t322 pfet_03v3 ad=0.22p pd=1.88u as=0.13p ps=1.02u w=0.5u l=0.5u
X204 RES_74k_1.M.t1 VSS.t682 cap_mim_2f0_m4m5_noshield c_width=31u c_length=29u
X205 VDD VCO_DFF_C_0.VCO_C_0.INV_2_5.IN.t38 VCO_DFF_C_0.VCO_C_0.INV_2_0.IN.t17 VDD.t398 pfet_03v3 ad=0.13p pd=1.02u as=0.13p ps=1.02u w=0.5u l=0.84u
X206 OUT a_50708_569.t36 VDD.t852 VDD.t211 pfet_03v3 ad=0.728p pd=3.32u as=0.728p ps=3.32u w=2.8u l=0.5u
X207 VSS a_50528_5246.t41 OUTB.t27 VSS.t205 nfet_03v3 ad=0.728p pd=3.32u as=0.728p ps=3.32u w=2.8u l=0.5u
X208 VCO_DFF_C_0.VCO_C_0.INV_2_3.OUT VCO_DFF_C_0.VCO_C_0.INV_2_3.IN.t38 VSS.t540 VSS.t539 nfet_03v3 ad=0.13p pd=1.02u as=0.13p ps=1.02u w=0.5u l=0.5u
X209 VDD VCO_DFF_C_0.VCO_C_0.OUTB.t16 VCO_DFF_C_0.DFF_3_mag_0.Tr_Gate_0.CLK.t11 VDD.t185 pfet_03v3 ad=0.22p pd=1.88u as=0.13p ps=1.02u w=0.5u l=0.5u
X210 VDD VCO_DFF_C_0.DFF_3_mag_0.INV_2_1.OUT.t21 VCO_DFF_C_0.DFF_3_mag_0.INV_2_5.OUT.t16 VDD.t576 pfet_03v3 ad=0.22p pd=1.88u as=0.13p ps=1.02u w=0.5u l=0.5u
X211 VCO_DFF_C_0.VCO_C_0.OUTB VCO_DFF_C_0.VCO_C_0.INV_2_3.OUT.t14 VSS.t579 VSS.t578 nfet_03v3 ad=0.13p pd=1.02u as=0.13p ps=1.02u w=0.5u l=0.5u
X212 RES_74k_1.M.t1 VSS.t681 cap_mim_2f0_m4m5_noshield c_width=31u c_length=29u
X213 VSS.t491 VSS.t489 VSS.t491 VSS.t490 nfet_03v3 ad=0.728p pd=3.32u as=0 ps=0 w=2.8u l=0.5u
X214 VSS.t488 VSS.t487 VSS.t488 VSS.t178 nfet_03v3 ad=0.728p pd=3.32u as=0 ps=0 w=2.8u l=0.5u
X215 VDD VCO_DFF_C_0.VCO_C_0.INV_2_3.OUT.t15 VCO_DFF_C_0.VCO_C_0.OUTB.t10 VDD.t755 pfet_03v3 ad=0.22p pd=1.88u as=0.13p ps=1.02u w=0.5u l=0.5u
X216 RES_74k_1.M.t1 VSS.t680 cap_mim_2f0_m4m5_noshield c_width=31u c_length=29u
X217 VDD VCO_DFF_C_0.DFF_3_mag_0.Tr_Gate_0.OUT.t17 VCO_DFF_C_0.OUT VDD.t750 pfet_03v3 ad=0.13p pd=1.02u as=0.13p ps=1.02u w=0.5u l=0.5u
X218 VCO_DFF_C_0.DFF_3_mag_0.Tr_Gate_0.CLK VCO_DFF_C_0.VCO_C_0.OUTB.t17 VDD.t200 VDD.t188 pfet_03v3 ad=0.13p pd=1.02u as=0.13p ps=1.02u w=0.5u l=0.5u
X219 VSS ITAIL1.t6 ITAIL1.t7 VSS.t899 nfet_03v3 ad=0.158p pd=1.64u as=0.158p ps=1.64u w=0.28u l=0.56u
X220 VSS VCTRL2.t12 a_25706_n567.t47 VSS.t724 nfet_03v3 ad=0.13p pd=1.02u as=0.13p ps=1.02u w=0.5u l=0.84u
X221 VSS a_50528_5246.t42 OUTB.t26 VSS.t208 nfet_03v3 ad=0.728p pd=3.32u as=0.728p ps=3.32u w=2.8u l=0.5u
X222 VDD.t979 VDD.t977 VDD.t979 VDD.t978 pfet_03v3 ad=0.22p pd=1.88u as=0 ps=0 w=0.5u l=0.84u
X223 RES_74k_1.P.t93 RES_74k_1.P.t94 VDD.t269 ppolyf_u r_width=1.1u r_length=2.6u
X224 VSS VCTRL2.t13 a_25706_n567.t46 VSS.t724 nfet_03v3 ad=0.13p pd=1.02u as=0.13p ps=1.02u w=0.5u l=0.84u
X225 UP_OUT a_27480_10186.t6 UP1.t4 VDD.t40 pfet_03v3 ad=0.218p pd=1.36u as=0.218p ps=1.36u w=0.84u l=0.5u
X226 RES_74k_1.P.t77 RES_74k_1.P.t78 VDD.t272 ppolyf_u r_width=1.1u r_length=2.6u
X227 VDD VCO_DFF_C_0.VCO_C_0.INV_2_2.IN.t35 VCO_DFF_C_0.VCO_C_0.INV_2_3.IN.t0 VDD.t90 pfet_03v3 ad=0.13p pd=1.02u as=0.22p ps=1.88u w=0.5u l=0.84u
X228 VSS VCO_DFF_C_0.OUT.t10 a_50810_1389.t3 VSS.t580 nfet_03v3 ad=0.728p pd=3.32u as=0.728p ps=3.32u w=2.8u l=0.5u
X229 DN_OUT a_29818_7696.t6 DN_INPUT.t7 VDD.t562 pfet_03v3 ad=0.218p pd=1.36u as=0.218p ps=1.36u w=0.84u l=0.5u
X230 VSS a_50708_569.t37 OUT.t28 VSS.t464 nfet_03v3 ad=0.728p pd=3.32u as=0.728p ps=3.32u w=2.8u l=0.5u
X231 RES_74k_1.P A_MUX_6.Tr_Gate_1.CLK.t13 CP_1_0.VCTRL.t26 VSS.t278 nfet_03v3 ad=0.218p pd=1.36u as=0.37p ps=2.56u w=0.84u l=0.5u
X232 VDD S5.t2 A_MUX_6.Tr_Gate_1.CLK.t10 VDD.t273 pfet_03v3 ad=0.22p pd=1.88u as=0.13p ps=1.02u w=0.5u l=0.5u
X233 VDD S6.t3 a_18508_8715.t5 VDD.t68 pfet_03v3 ad=0.218p pd=1.36u as=0.218p ps=1.36u w=0.84u l=0.5u
X234 RES_74k_1.M.t1 VSS.t679 cap_mim_2f0_m4m5_noshield c_width=31u c_length=29u
X235 VDD VCO_DFF_C_0.VCO_C_0.INV_2_0.IN.t36 VCO_DFF_C_0.VCO_C_0.INV_2_5.IN.t13 VDD.t393 pfet_03v3 ad=0.13p pd=1.02u as=0.13p ps=1.02u w=0.5u l=0.84u
X236 RES_74k_1.M.t1 VSS.t678 cap_mim_2f0_m4m5_noshield c_width=31u c_length=29u
X237 VSS a_22967_8787.t7 a_22881_9554.t1 VSS.t6 nfet_03v3 ad=0.13p pd=1.02u as=0.13p ps=1.02u w=0.5u l=0.5u
X238 VCO_DFF_C_0.VCO_C_0.INV_2_2.IN VCO_DFF_C_0.VCO_C_0.INV_2_3.IN.t39 VDD.t720 VDD.t180 pfet_03v3 ad=0.13p pd=1.02u as=0.13p ps=1.02u w=0.5u l=0.84u
X239 VDD S5.t3 A_MUX_6.Tr_Gate_1.CLK.t9 VDD.t276 pfet_03v3 ad=0.13p pd=1.02u as=0.13p ps=1.02u w=0.5u l=0.5u
X240 VDD a_25557_8739.t3 DN1.t10 VDD.t1079 pfet_03v3 ad=0.22p pd=1.88u as=0.13p ps=1.02u w=0.5u l=0.5u
X241 VCO_DFF_C_0.VCO_C_0.INV_2_0.OUT VCO_DFF_C_0.VCO_C_0.INV_2_0.IN.t37 VDD.t518 VDD.t517 pfet_03v3 ad=0.13p pd=1.02u as=0.13p ps=1.02u w=0.5u l=0.5u
X242 RES_74k_1.M.t0 a_42628_11460.t1 VDD.t269 ppolyf_u r_width=1.1u r_length=2.6u
X243 VDD VCO_DFF_C_0.OUT.t11 VCO_DFF_C_0.OUTB.t10 VDD.t6 pfet_03v3 ad=0.22p pd=1.88u as=0.13p ps=1.02u w=0.5u l=0.5u
X244 a_46528_12082.t1 a_46228_11460.t1 VDD.t272 ppolyf_u r_width=1.1u r_length=2.6u
X245 OUTB a_50528_5246.t43 VDD.t479 VDD.t442 pfet_03v3 ad=0.728p pd=3.32u as=0.728p ps=3.32u w=2.8u l=0.5u
X246 VSS.t486 VSS.t485 VSS.t486 VSS.t368 nfet_03v3 ad=0.22p pd=1.88u as=0 ps=0 w=0.5u l=0.84u
X247 UP_OUT a_29875_10702.t6 UP_INPUT.t3 VDD.t72 pfet_03v3 ad=0.218p pd=1.36u as=0.218p ps=1.36u w=0.84u l=0.5u
X248 PFD_T2_0.INV_mag_0.IN a_22966_11778.t6 VDD.t901 VDD.t900 pfet_03v3 ad=0.13p pd=1.02u as=0.13p ps=1.02u w=0.5u l=0.5u
X249 DN1 a_27423_7180.t6 DN_OUT.t1 VDD.t130 pfet_03v3 ad=0.218p pd=1.36u as=0.218p ps=1.36u w=0.84u l=0.5u
X250 RES_74k_1.M.t1 VSS.t677 cap_mim_2f0_m4m5_noshield c_width=31u c_length=29u
X251 VCO_DFF_C_0.DFF_3_mag_0.INV_2_1.OUT VCO_DFF_C_0.DFF_3_mag_0.INV_2_1.IN.t16 VDD.t674 VDD.t52 pfet_03v3 ad=0.13p pd=1.02u as=0.22p ps=1.88u w=0.5u l=0.5u
X252 a_45328_10426.t0 a_45628_9804.t1 VDD.t22 ppolyf_u r_width=1.1u r_length=2.6u
X253 VCO_DFF_C_0.VCO_C_0.OUT VCO_DFF_C_0.VCO_C_0.INV_2_4.IN.t15 VDD.t123 VDD.t122 pfet_03v3 ad=0.13p pd=1.02u as=0.13p ps=1.02u w=0.5u l=0.5u
X254 VCO_DFF_C_0.VCO_C_0.INV_2_3.IN VCO_DFF_C_0.VCO_C_0.INV_2_2.IN.t36 VDD.t94 VDD.t93 pfet_03v3 ad=0.22p pd=1.88u as=0.13p ps=1.02u w=0.5u l=0.84u
X255 RES_74k_1.P.t65 RES_74k_1.P.t66 VDD.t21 ppolyf_u r_width=1.1u r_length=2.6u
X256 OUTB a_50528_5246.t44 VDD.t480 VDD.t444 pfet_03v3 ad=0.728p pd=3.32u as=0.728p ps=3.32u w=2.8u l=0.5u
X257 PFD_T2_0.Buffer_V_2_1.IN PFD_T2_0.INV_mag_0.IN.t20 VDD.t1089 VDD.t900 pfet_03v3 ad=0.22p pd=1.88u as=0.13p ps=1.02u w=0.5u l=0.5u
X258 VDD a_22967_8787.t8 PFD_T2_0.INV_mag_1.IN.t15 VDD.t294 pfet_03v3 ad=0.13p pd=1.02u as=0.13p ps=1.02u w=0.5u l=0.5u
X259 a_43828_9598.t1 a_43528_8976.t1 VDD.t133 ppolyf_u r_width=1.1u r_length=2.6u
X260 VCO_DFF_C_0.VCTRL S4.t3 VCTRL_IN.t7 VSS.t150 nfet_03v3 ad=0.37p pd=2.56u as=0.37p ps=2.56u w=0.84u l=0.5u
X261 VSS a_50630_6066.t9 a_50528_5246.t16 VSS.t197 nfet_03v3 ad=0.728p pd=3.32u as=0.728p ps=3.32u w=2.8u l=0.5u
X262 VCTRL_IN a_42763_5679.t6 VCO_DFF_C_0.VCTRL.t8 VDD.t367 pfet_03v3 ad=0.218p pd=1.36u as=0.218p ps=1.36u w=0.84u l=0.5u
X263 OUT a_50708_569.t38 VDD.t853 VDD.t38 pfet_03v3 ad=0.728p pd=3.32u as=0.728p ps=3.32u w=2.8u l=0.5u
X264 A_MUX_4.Tr_Gate_1.CLK S3.t2 VDD.t842 VDD.t286 pfet_03v3 ad=0.13p pd=1.02u as=0.13p ps=1.02u w=0.5u l=0.5u
X265 VSS VCO_DFF_C_0.VCO_C_0.INV_2_2.IN.t37 VCO_DFF_C_0.VCO_C_0.INV_2_4.IN.t1 VSS.t59 nfet_03v3 ad=0.13p pd=1.02u as=0.13p ps=1.02u w=0.5u l=0.5u
X266 a_42628_11254.t1 a_42628_10426.t1 VDD.t269 ppolyf_u r_width=1.1u r_length=2.6u
X267 a_46228_11254.t1 a_46528_10632.t1 VDD.t272 ppolyf_u r_width=1.1u r_length=2.6u