* NGSPICE file created from PLL_TOP_MUX_flat.ext - technology: gf180mcuC

.subckt pex_PLL_TOP_MUX UP_INPUT VDD DN_INPUT VSS PRE_SCALAR UP F_IN DN ITAIL DIV_OUT S1 ITAIL1 VCTRL_IN S6 VCTRL2 S2 OUT
X0 a_42928_8770.t0 a_43228_8148.t0 VDD.t98 ppolyf_u r_width=1.1u r_length=2.6u
X1 RES_74k_1.M.t1 VSS.t131 cap_mim_2f0_m4m5_noshield c_width=31u c_length=29u
X2 PFD_T2_0.INV_mag_1.OUT PFD_T2_0.INV_mag_1.IN.t17 VSS.t579 VSS.t578 nfet_03v3 ad=0.22p pd=1.88u as=0.22p ps=1.88u w=0.5u l=0.5u
X3 PFD_T2_0.Buffer_V_2_0.IN PFD_T2_0.INV_mag_1.IN.t18 VDD.t466 VDD.t244 pfet_03v3 ad=0.13p pd=1.02u as=0.13p ps=1.02u w=0.5u l=0.5u
X4 VCO_DFF_C_0.VCO_C_0.INV_2_5.OUT VCO_DFF_C_0.VCO_C_0.INV_2_5.IN.t31 VSS.t265 VSS.t264 nfet_03v3 ad=0.13p pd=1.02u as=0.22p ps=1.88u w=0.5u l=0.5u
X5 VCO_DFF_C_0.VCO_C_0.INV_2_0.IN VCO_DFF_C_0.VCO_C_0.INV_2_5.IN.t32 VDD.t161 VDD.t160 pfet_03v3 ad=0.13p pd=1.02u as=0.13p ps=1.02u w=0.5u l=0.84u
X6 RES_74k_1.M.t1 VSS.t130 cap_mim_2f0_m4m5_noshield c_width=31u c_length=29u
X7 VSS VCO_DFF_C_0.VCO_C_0.INV_2_3.IN.t31 VCO_DFF_C_0.VCO_C_0.INV_2_3.OUT.t3 VSS.t764 nfet_03v3 ad=0.22p pd=1.88u as=0.13p ps=1.02u w=0.5u l=0.5u
X8 VSS VCTRL2.t1 a_25706_n567.t38 VSS.t276 nfet_03v3 ad=0.13p pd=1.02u as=0.13p ps=1.02u w=0.5u l=0.84u
X9 VSS mux_magic_3.OR_magic_0.A.t3 a_21443_9476.t0 VSS.t250 nfet_03v3 ad=0.291p pd=1.64u as=0.493p ps=3.12u w=1.12u l=0.56u
X10 a_43528_12082.t0 a_43828_11460.t0 VDD.t4 ppolyf_u r_width=1.1u r_length=2.6u
X11 VDD VCO_DFF_C_0.VCO_C_0.INV_2_0.IN.t31 VCO_DFF_C_0.VCO_C_0.INV_2_5.IN.t3 VDD.t162 pfet_03v3 ad=0.13p pd=1.02u as=0.22p ps=1.88u w=0.5u l=0.84u
X12 VSS PFD_T2_0.Buffer_V_2_0.IN.t11 a_25557_8739.t0 VSS.t436 nfet_03v3 ad=0.13p pd=1.02u as=0.22p ps=1.88u w=0.5u l=0.5u
X13 VSS.t241 VSS.t239 VSS.t241 VSS.t240 nfet_03v3 ad=0.22p pd=1.88u as=0 ps=0 w=0.5u l=0.84u
X14 RES_74k_1.M.t1 VSS.t129 cap_mim_2f0_m4m5_noshield c_width=31u c_length=29u
X15 RES_74k_1.M.t1 VSS.t128 cap_mim_2f0_m4m5_noshield c_width=31u c_length=29u
X16 RES_74k_1.P.t12 RES_74k_1.P.t13 VDD.t79 ppolyf_u r_width=1.1u r_length=2.6u
X17 RES_74k_1.P A_MUX_0.Tr_Gate_1.CLK.t12 VCO_DFF_C_0.VCTRL.t3 VSS.t449 nfet_03v3 ad=0.218p pd=1.36u as=0.37p ps=2.56u w=0.84u l=0.5u
X18 VDD a_22967_8787.t4 PFD_T2_0.INV_mag_1.IN.t13 VDD.t731 pfet_03v3 ad=0.13p pd=1.02u as=0.13p ps=1.02u w=0.5u l=0.5u
X19 RES_74k_1.P.t10 RES_74k_1.P.t11 VDD.t98 ppolyf_u r_width=1.1u r_length=2.6u
X20 VSS VCTRL2.t3 a_34443_2598.t38 VSS.t281 nfet_03v3 ad=0.13p pd=1.02u as=0.13p ps=1.02u w=0.5u l=0.84u
X21 RES_74k_1.M.t1 VSS.t127 cap_mim_2f0_m4m5_noshield c_width=31u c_length=29u
X22 VSS VCO_DFF_C_0.VCO_C_0.INV_2_3.OUT.t12 VCO_DFF_C_0.VCO_C_0.OUTB.t3 VSS.t699 nfet_03v3 ad=0.22p pd=1.88u as=0.13p ps=1.02u w=0.5u l=0.5u
X23 VSS S6.t0 mux_magic_3.AND2_magic_0.A.t2 VSS.t253 nfet_03v3 ad=0.291p pd=1.64u as=0.291p ps=1.64u w=1.12u l=0.56u
X24 VCO_DFF_C_0.DFF_3_mag_0.Tr_Gate_0.IN OUT.t12 VSS.t533 VSS.t519 nfet_03v3 ad=0.13p pd=1.02u as=0.13p ps=1.02u w=0.5u l=0.5u
X25 VDD a_22967_8787.t5 PFD_T2_0.INV_mag_1.IN.t14 VDD.t734 pfet_03v3 ad=0.13p pd=1.02u as=0.13p ps=1.02u w=0.5u l=0.5u
X26 a_43828_11254.t0 a_43528_10632.t0 VDD.t4 ppolyf_u r_width=1.1u r_length=2.6u
X27 VSS VCO_DFF_C_0.DFF_3_mag_0.Tr_Gate_0.OUT.t16 OUT.t0 VSS.t511 nfet_03v3 ad=0.22p pd=1.88u as=0.13p ps=1.02u w=0.5u l=0.5u
X28 VCO_DFF_C_0.VCO_C_0.INV_2_2.IN VCO_DFF_C_0.VCTRL.t16 VDD.t776 VDD.t47 pfet_03v3 ad=0.22p pd=1.88u as=0.13p ps=1.02u w=0.5u l=0.84u
X29 VSS PFD_T2_0.INV_mag_1.OUT.t3 a_22879_10704.t1 VSS.t569 nfet_03v3 ad=0.22p pd=1.88u as=0.13p ps=1.02u w=0.5u l=0.5u
X30 PFD_T2_0.INV_mag_1.OUT PFD_T2_0.INV_mag_1.IN.t19 VDD.t467 VDD.t462 pfet_03v3 ad=0.13p pd=1.02u as=0.22p ps=1.88u w=0.5u l=0.5u
X31 VDD.t77 VDD.t75 VDD.t77 VDD.t76 pfet_03v3 ad=0.22p pd=1.88u as=0 ps=0 w=0.5u l=0.84u
X32 VCO_DFF_C_0.VCO_C_0.INV_2_3.IN VCO_DFF_C_0.VCO_C_0.INV_2_2.IN.t31 VDD.t365 VDD.t364 pfet_03v3 ad=0.22p pd=1.88u as=0.13p ps=1.02u w=0.5u l=0.84u
X33 VDD.t74 VDD.t73 VDD.t74 VDD.t13 pfet_03v3 ad=0.22p pd=1.88u as=0 ps=0 w=0.5u l=0.84u
X34 RES_74k_1.M.t1 VSS.t126 cap_mim_2f0_m4m5_noshield c_width=31u c_length=29u
X35 VSS.t238 VSS.t237 VSS.t238 VSS.t176 nfet_03v3 ad=0.22p pd=1.88u as=0 ps=0 w=0.5u l=0.84u
X36 VCO_DFF_C_0.VCO_C_0.INV_2_3.IN VCO_DFF_C_0.VCO_C_0.INV_2_5.OUT.t12 a_34443_2598.t59 VSS.t439 nfet_03v3 ad=0.22p pd=1.88u as=0.13p ps=1.02u w=0.5u l=0.84u
X37 VCO_DFF_C_0.VCO_C_0.INV_2_5.IN VCO_DFF_C_0.VCO_C_0.INV_2_0.IN.t32 VDD.t611 VDD.t160 pfet_03v3 ad=0.13p pd=1.02u as=0.13p ps=1.02u w=0.5u l=0.84u
X38 VCO_DFF_C_0.VCO_C_0.INV_2_5.IN VCO_DFF_C_0.VCTRL.t17 VDD.t784 VDD.t66 pfet_03v3 ad=0.13p pd=1.02u as=0.13p ps=1.02u w=0.5u l=0.84u
X39 VDD VCO_DFF_C_0.VCO_C_0.INV_2_5.IN.t33 VCO_DFF_C_0.VCO_C_0.INV_2_0.IN.t16 VDD.t162 pfet_03v3 ad=0.13p pd=1.02u as=0.22p ps=1.88u w=0.5u l=0.84u
X40 VDD.t72 VDD.t70 VDD.t72 VDD.t71 pfet_03v3 ad=0.22p pd=1.88u as=0 ps=0 w=0.5u l=0.84u
X41 RES_74k_1.M.t1 VSS.t125 cap_mim_2f0_m4m5_noshield c_width=31u c_length=29u
X42 mux_magic_2.OR_magic_0.B a_19897_10547.t6 VDD.t320 VDD.t319 pfet_03v3 ad=0.291p pd=1.64u as=0.291p ps=1.64u w=1.12u l=0.56u
X43 RES_74k_1.M.t1 VSS.t124 cap_mim_2f0_m4m5_noshield c_width=31u c_length=29u
X44 VCO_DFF_C_0.VCO_C_0.INV_2_2.IN VCO_DFF_C_0.VCO_C_0.INV_2_0.OUT.t12 a_34443_2598.t40 VSS.t478 nfet_03v3 ad=0.22p pd=1.88u as=0.13p ps=1.02u w=0.5u l=0.84u
X45 RES_74k_1.M.t1 VSS.t123 cap_mim_2f0_m4m5_noshield c_width=31u c_length=29u
X46 VDD VCO_DFF_C_0.VCO_C_0.INV_2_5.IN.t34 VCO_DFF_C_0.VCO_C_0.INV_2_0.IN.t15 VDD.t165 pfet_03v3 ad=0.13p pd=1.02u as=0.22p ps=1.88u w=0.5u l=0.84u
X47 VSS VCTRL2.t6 a_34443_2598.t36 VSS.t288 nfet_03v3 ad=0.13p pd=1.02u as=0.13p ps=1.02u w=0.5u l=0.84u
X48 VSS VCO_DFF_C_0.DFF_3_mag_0.Tr_Gate_0.CLK.t12 a_44716_n517.t1 VSS.t665 nfet_03v3 ad=0.218p pd=1.36u as=0.37p ps=2.56u w=0.84u l=0.5u
X49 VSS.t236 VSS.t235 VSS.t236 VSS.t228 nfet_03v3 ad=0.22p pd=1.88u as=0 ps=0 w=0.5u l=0.84u
X50 VDD mux_magic_1.AND2_magic_0.A.t10 a_27875_8520.t0 VDD.t116 pfet_03v3 ad=0.291p pd=1.64u as=0.291p ps=1.64u w=1.12u l=0.56u
X51 VCO_DFF_C_0.VCO_C_0.OUT VCO_DFF_C_0.VCO_C_0.INV_2_4.IN.t12 VSS.t592 VSS.t591 nfet_03v3 ad=0.13p pd=1.02u as=0.13p ps=1.02u w=0.5u l=0.5u
X52 VDD VCO_DFF_C_0.VCO_C_0.INV_2_4.IN.t13 VCO_DFF_C_0.VCO_C_0.OUT.t11 VDD.t479 pfet_03v3 ad=0.22p pd=1.88u as=0.13p ps=1.02u w=0.5u l=0.5u
X53 VSS ITAIL1.t6 ITAIL1.t7 VSS.t618 nfet_03v3 ad=92.8f pd=0.92u as=0.158p ps=1.64u w=0.28u l=0.56u
X54 RES_74k_1.P.t18 RES_74k_1.P.t19 VDD.t106 ppolyf_u r_width=1.1u r_length=2.6u
X55 RES_74k_1.M.t1 VSS.t122 cap_mim_2f0_m4m5_noshield c_width=31u c_length=29u
X56 VSS.t234 VSS.t232 VSS.t234 VSS.t233 nfet_03v3 ad=0.22p pd=1.88u as=0 ps=0 w=0.5u l=0.84u
X57 mux_magic_3.AND2_magic_0.A S6.t1 VDD.t133 VDD.t132 pfet_03v3 ad=0.291p pd=1.64u as=0.493p ps=3.12u w=1.12u l=0.56u
X58 VDD S3.t1 a_27875_9714.t4 VDD.t561 pfet_03v3 ad=0.291p pd=1.64u as=0.291p ps=1.64u w=1.12u l=0.56u
X59 VSS.t231 VSS.t230 VSS.t231 VSS.t187 nfet_03v3 ad=0.22p pd=1.88u as=0 ps=0 w=0.5u l=0.84u
X60 VCO_DFF_C_0.VCO_C_0.INV_2_2.IN VCO_DFF_C_0.VCO_C_0.INV_2_3.IN.t32 VDD.t788 VDD.t396 pfet_03v3 ad=0.13p pd=1.02u as=0.13p ps=1.02u w=0.5u l=0.84u
X61 VCO_DFF_C_0.VCO_C_0.INV_2_5.IN VCO_DFF_C_0.VCTRL.t18 VDD.t93 VDD.t88 pfet_03v3 ad=0.22p pd=1.88u as=0.13p ps=1.02u w=0.5u l=0.84u
X62 a_44728_10426.t1 a_44428_9804.t0 VDD.t106 ppolyf_u r_width=1.1u r_length=2.6u
X63 VDD S4.t0 A_MUX_0.Tr_Gate_1.CLK.t0 VDD.t698 pfet_03v3 ad=0.13p pd=1.02u as=0.13p ps=1.02u w=0.5u l=0.5u
X64 RES_74k_1.M.t1 VSS.t121 cap_mim_2f0_m4m5_noshield c_width=31u c_length=29u
X65 a_42628_9598.t0 a_42928_8976.t1 VDD.t101 ppolyf_u r_width=1.1u r_length=2.6u
X66 VSS.t229 VSS.t227 VSS.t229 VSS.t228 nfet_03v3 ad=0.22p pd=1.88u as=0 ps=0 w=0.5u l=0.84u
X67 a_44728_12082.t0 a_44428_11460.t0 VDD.t106 ppolyf_u r_width=1.1u r_length=2.6u
X68 VCO_DFF_C_0.VCO_C_0.INV_2_0.OUT VCO_DFF_C_0.VCO_C_0.INV_2_0.IN.t33 VSS.t688 VSS.t266 nfet_03v3 ad=0.13p pd=1.02u as=0.13p ps=1.02u w=0.5u l=0.5u
X69 VCO_DFF_C_0.DFF_3_mag_0.INV_2_1.IN VCO_DFF_C_0.VCO_C_0.OUTB.t12 VCO_DFF_C_0.DFF_3_mag_0.INV_2_5.OUT.t2 VSS.t736 nfet_03v3 ad=0.37p pd=2.56u as=0.218p ps=1.36u w=0.84u l=0.5u
X70 PFD_T2_0.FIN a_21437_10708.t6 VSS.t259 VSS.t258 nfet_03v3 ad=0.493p pd=3.12u as=0.493p ps=3.12u w=1.12u l=0.56u
X71 PFD_T2_0.INV_mag_0.OUT PFD_T2_0.INV_mag_0.IN.t18 VDD.t463 VDD.t462 pfet_03v3 ad=0.13p pd=1.02u as=0.22p ps=1.88u w=0.5u l=0.5u
X72 VCO_DFF_C_0.VCO_C_0.INV_2_0.IN VCO_DFF_C_0.VCO_C_0.OUT.t13 a_25706_n567.t41 VSS.t658 nfet_03v3 ad=0.13p pd=1.02u as=0.13p ps=1.02u w=0.5u l=0.84u
X73 VSS S1.t0 mux_magic_2.AND2_magic_0.A.t0 VSS.t457 nfet_03v3 ad=0.291p pd=1.64u as=0.291p ps=1.64u w=1.12u l=0.56u
X74 a_44428_11254.t1 a_44728_10632.t1 VDD.t106 ppolyf_u r_width=1.1u r_length=2.6u
X75 VSS OUT.t13 VCO_DFF_C_0.DFF_3_mag_0.Tr_Gate_0.IN.t2 VSS.t511 nfet_03v3 ad=0.22p pd=1.88u as=0.13p ps=1.02u w=0.5u l=0.5u
X76 VSS VCTRL2.t8 a_25706_n567.t35 VSS.t292 nfet_03v3 ad=0.13p pd=1.02u as=0.13p ps=1.02u w=0.5u l=0.84u
X77 ITAIL ITAIL.t14 VDD.t144 VDD.t143 pfet_03v3 ad=0.158p pd=1.64u as=0.158p ps=1.64u w=0.28u l=0.56u
X78 VSS PFD_T2_0.INV_mag_0.IN.t19 a_23836_10693.t2 VSS.t564 nfet_03v3 ad=0.13p pd=1.02u as=0.22p ps=1.88u w=0.5u l=0.5u
X79 VSS S3.t2 mux_magic_1.AND2_magic_0.A.t4 VSS.t654 nfet_03v3 ad=0.291p pd=1.64u as=0.291p ps=1.64u w=1.12u l=0.56u
X80 a_45928_10426.t1 a_46228_9804.t0 VDD.t107 ppolyf_u r_width=1.1u r_length=2.6u
X81 VCO_DFF_C_0.VCO_C_0.INV_2_3.OUT VCO_DFF_C_0.VCO_C_0.INV_2_3.IN.t33 VDD.t790 VDD.t789 pfet_03v3 ad=0.13p pd=1.02u as=0.22p ps=1.88u w=0.5u l=0.5u
X82 a_44428_9598.t0 a_44128_8976.t0 VDD.t105 ppolyf_u r_width=1.1u r_length=2.6u
X83 VDD S4.t1 a_42763_5679.t5 VDD.t255 pfet_03v3 ad=0.218p pd=1.36u as=0.218p ps=1.36u w=0.84u l=0.5u
X84 RES_74k_1.M.t1 VSS.t120 cap_mim_2f0_m4m5_noshield c_width=31u c_length=29u
X85 VCO_DFF_C_0.DFF_3_mag_0.Tr_Gate_0.CLK VCO_DFF_C_0.VCO_C_0.OUTB.t13 VSS.t738 VSS.t737 nfet_03v3 ad=0.13p pd=1.02u as=0.13p ps=1.02u w=0.5u l=0.5u
X86 VCO_DFF_C_0.VCO_C_0.OUTB VCO_DFF_C_0.VCO_C_0.INV_2_3.OUT.t13 VDD.t662 VDD.t660 pfet_03v3 ad=0.13p pd=1.02u as=0.22p ps=1.88u w=0.5u l=0.5u
X87 RES_74k_1.M.t1 VSS.t119 cap_mim_2f0_m4m5_noshield c_width=31u c_length=29u
X88 VCO_DFF_C_0.VCO_C_0.INV_2_0.IN VCO_DFF_C_0.VCO_C_0.INV_2_5.IN.t35 VDD.t169 VDD.t168 pfet_03v3 ad=0.22p pd=1.88u as=0.13p ps=1.02u w=0.5u l=0.84u
X89 a_45928_8770.t0 a_45628_8148.t0 VDD.t100 ppolyf_u r_width=1.1u r_length=2.6u
X90 OUTB a_41879_1284.t6 VCO_DFF_C_0.DFF_3_mag_0.INV_2_1.IN.t8 VDD.t146 pfet_03v3 ad=0.37p pd=2.56u as=0.218p ps=1.36u w=0.84u l=0.5u
X91 a_42628_8770.t0 a_42628_8148.t0 VDD.t78 ppolyf_u r_width=1.1u r_length=2.6u
X92 RES_74k_1.M.t1 VSS.t118 cap_mim_2f0_m4m5_noshield c_width=31u c_length=29u
X93 VCO_DFF_C_0.VCO_C_0.INV_2_0.IN VCO_DFF_C_0.VCO_C_0.OUT.t14 a_25706_n567.t42 VSS.t659 nfet_03v3 ad=0.22p pd=1.88u as=0.13p ps=1.02u w=0.5u l=0.84u
X94 VSS DIV_OUT.t1 a_20103_8443.t2 VSS.t711 nfet_03v3 ad=0.291p pd=1.64u as=0.291p ps=1.64u w=1.12u l=0.56u
X95 RES_74k_1.P.t0 RES_74k_1.P.t1 VDD.t3 ppolyf_u r_width=1.1u r_length=2.6u
X96 VSS VCO_DFF_C_0.VCO_C_0.INV_2_4.IN.t14 VCO_DFF_C_0.VCO_C_0.OUT.t2 VSS.t593 nfet_03v3 ad=0.22p pd=1.88u as=0.13p ps=1.02u w=0.5u l=0.5u
X97 VCO_DFF_C_0.VCO_C_0.INV_2_2.IN VCO_DFF_C_0.VCO_C_0.INV_2_3.IN.t34 VDD.t791 VDD.t364 pfet_03v3 ad=0.22p pd=1.88u as=0.13p ps=1.02u w=0.5u l=0.84u
X98 VDD.t69 VDD.t68 VDD.t69 VDD.t37 pfet_03v3 ad=0.22p pd=1.88u as=0 ps=0 w=0.5u l=0.84u
X99 VCO_DFF_C_0.DFF_3_mag_0.INV_2_5.OUT VCO_DFF_C_0.DFF_3_mag_0.INV_2_1.OUT.t20 VDD.t447 VDD.t446 pfet_03v3 ad=0.13p pd=1.02u as=0.13p ps=1.02u w=0.5u l=0.5u
X100 VSS VCTRL2.t9 a_25706_n567.t34 VSS.t292 nfet_03v3 ad=0.13p pd=1.02u as=0.13p ps=1.02u w=0.5u l=0.84u
X101 RES_74k_1.P.t85 RES_74k_1.P.t86 VDD.t100 ppolyf_u r_width=1.1u r_length=2.6u
X102 VSS OUT.t14 OUTB.t3 VSS.t536 nfet_03v3 ad=0.13p pd=1.02u as=0.13p ps=1.02u w=0.5u l=0.5u
X103 PFD_T2_0.FDIV a_21443_9476.t6 VDD.t82 VDD.t81 pfet_03v3 ad=0.493p pd=3.12u as=0.493p ps=3.12u w=1.12u l=0.56u
X104 RES_74k_1.P.t14 RES_74k_1.P.t15 VDD.t78 ppolyf_u r_width=1.1u r_length=2.6u
X105 VDD.t67 VDD.t65 VDD.t67 VDD.t66 pfet_03v3 ad=0.22p pd=1.88u as=0 ps=0 w=0.5u l=0.84u
X106 PFD_T2_0.INV_mag_1.IN a_22967_8787.t6 VDD.t737 VDD.t720 pfet_03v3 ad=0.13p pd=1.02u as=0.22p ps=1.88u w=0.5u l=0.5u
X107 VDD ITAIL.t12 ITAIL.t13 VDD.t136 pfet_03v3 ad=0.158p pd=1.64u as=0.158p ps=1.64u w=0.28u l=0.56u
X108 VCO_DFF_C_0.VCO_C_0.INV_2_2.IN VCO_DFF_C_0.VCO_C_0.INV_2_3.IN.t35 VDD.t792 VDD.t382 pfet_03v3 ad=0.22p pd=1.88u as=0.13p ps=1.02u w=0.5u l=0.84u
X109 RES_74k_1.M.t1 VSS.t117 cap_mim_2f0_m4m5_noshield c_width=31u c_length=29u
X110 VSS VSS.t220 a_20103_9637.t0 VSS.t221 nfet_03v3 ad=0.291p pd=1.64u as=0.291p ps=1.64u w=1.12u l=0.56u
X111 VCO_DFF_C_0.VCO_C_0.INV_2_3.OUT VCO_DFF_C_0.VCO_C_0.INV_2_3.IN.t36 VDD.t794 VDD.t793 pfet_03v3 ad=0.13p pd=1.02u as=0.13p ps=1.02u w=0.5u l=0.5u
X112 VDD A_MUX_0.Tr_Gate_1.CLK.t13 a_45158_5339.t5 VDD.t252 pfet_03v3 ad=0.37p pd=2.56u as=0.218p ps=1.36u w=0.84u l=0.5u
X113 VDD VCO_DFF_C_0.VCO_C_0.INV_2_0.IN.t34 VCO_DFF_C_0.VCO_C_0.INV_2_5.IN.t5 VDD.t175 pfet_03v3 ad=0.13p pd=1.02u as=0.13p ps=1.02u w=0.5u l=0.84u
X114 mux_magic_0.OR_magic_0.B a_27722_10564.t6 VSS.t451 VSS.t450 nfet_03v3 ad=0.493p pd=3.12u as=0.493p ps=3.12u w=1.12u l=0.56u
X115 a_45328_12082.t0 a_45628_11460.t0 VDD.t3 ppolyf_u r_width=1.1u r_length=2.6u
X116 a_44128_8770.t0 a_43828_8148.t0 VDD.t5 ppolyf_u r_width=1.1u r_length=2.6u
X117 mux_magic_1.AND2_magic_0.A S3.t3 VDD.t488 VDD.t487 pfet_03v3 ad=0.291p pd=1.64u as=0.493p ps=3.12u w=1.12u l=0.56u
X118 VDD.t64 VDD.t62 VDD.t64 VDD.t63 pfet_03v3 ad=0.22p pd=1.88u as=0 ps=0 w=0.5u l=0.84u
X119 VDD S2.t2 a_27722_10564.t1 VDD.t329 pfet_03v3 ad=0.291p pd=1.64u as=0.291p ps=1.64u w=1.12u l=0.56u
X120 RES_74k_1.P ITAIL.t18 a_31732_10267.t6 VDD.t139 pfet_03v3 ad=0.158p pd=1.64u as=0.158p ps=1.64u w=0.28u l=0.56u
X121 VSS VCTRL2.t10 a_25706_n567.t33 VSS.t297 nfet_03v3 ad=0.22p pd=1.88u as=0.13p ps=1.02u w=0.5u l=0.84u
X122 VCO_DFF_C_0.VCO_C_0.INV_2_4.IN VCO_DFF_C_0.VCO_C_0.INV_2_2.IN.t32 VSS.t522 VSS.t521 nfet_03v3 ad=0.13p pd=1.02u as=0.22p ps=1.88u w=0.5u l=0.5u
X123 RES_74k_1.M.t1 VSS.t116 cap_mim_2f0_m4m5_noshield c_width=31u c_length=29u
X124 mux_magic_0.OR_magic_0.A a_27722_11758.t6 VSS.t550 VSS.t549 nfet_03v3 ad=0.493p pd=3.12u as=0.493p ps=3.12u w=1.12u l=0.56u
X125 RES_74k_1.M.t1 VSS.t115 cap_mim_2f0_m4m5_noshield c_width=31u c_length=29u
X126 VDD a_31468_10271.t6 a_31732_10267.t8 VDD.t599 pfet_03v3 ad=0.308p pd=2.28u as=0.308p ps=2.28u w=0.7u l=0.56u
X127 VDD VCO_DFF_C_0.VCO_C_0.INV_2_5.IN.t36 VCO_DFF_C_0.VCO_C_0.INV_2_5.OUT.t11 VDD.t170 pfet_03v3 ad=0.13p pd=1.02u as=0.13p ps=1.02u w=0.5u l=0.5u
X128 RES_74k_1.M.t1 VSS.t114 cap_mim_2f0_m4m5_noshield c_width=31u c_length=29u
X129 a_45628_11254.t0 a_45328_10632.t0 VDD.t3 ppolyf_u r_width=1.1u r_length=2.6u
X130 VDD A_MUX_0.Tr_Gate_1.CLK.t14 a_45158_5339.t4 VDD.t722 pfet_03v3 ad=0.218p pd=1.36u as=0.218p ps=1.36u w=0.84u l=0.5u
X131 VCO_DFF_C_0.VCO_C_0.INV_2_3.IN VCO_DFF_C_0.VCO_C_0.INV_2_5.OUT.t13 a_34443_2598.t58 VSS.t480 nfet_03v3 ad=0.13p pd=1.02u as=0.13p ps=1.02u w=0.5u l=0.84u
X132 VCO_DFF_C_0.DFF_3_mag_0.INV_2_1.IN VCO_DFF_C_0.VCO_C_0.OUTB.t15 VCO_DFF_C_0.DFF_3_mag_0.INV_2_5.OUT.t1 VSS.t739 nfet_03v3 ad=0.37p pd=2.56u as=0.37p ps=2.56u w=0.84u l=0.5u
X133 VDD VCO_DFF_C_0.DFF_3_mag_0.Tr_Gate_0.CLK.t16 a_41879_1284.t3 VDD.t146 pfet_03v3 ad=0.37p pd=2.56u as=0.218p ps=1.36u w=0.84u l=0.5u
X134 VCO_DFF_C_0.VCO_C_0.INV_2_4.IN VCO_DFF_C_0.VCO_C_0.INV_2_2.IN.t33 VDD.t367 VDD.t366 pfet_03v3 ad=0.13p pd=1.02u as=0.13p ps=1.02u w=0.5u l=0.5u
X135 VDD OUT.t15 VCO_DFF_C_0.DFF_3_mag_0.Tr_Gate_0.IN.t11 VDD.t418 pfet_03v3 ad=0.22p pd=1.88u as=0.13p ps=1.02u w=0.5u l=0.5u
X136 VDD.t61 VDD.t60 VDD.t61 VDD.t13 pfet_03v3 ad=0.22p pd=1.88u as=0 ps=0 w=0.5u l=0.84u
X137 VDD a_22966_11778.t4 PFD_T2_0.INV_mag_0.IN.t4 VDD.t305 pfet_03v3 ad=0.13p pd=1.02u as=0.13p ps=1.02u w=0.5u l=0.5u
X138 RES_74k_1.P.t16 RES_74k_1.P.t17 VDD.t5 ppolyf_u r_width=1.1u r_length=2.6u
X139 VSS VCO_DFF_C_0.VCO_C_0.INV_2_2.IN.t34 VCO_DFF_C_0.VCO_C_0.INV_2_4.IN.t2 VSS.t523 nfet_03v3 ad=0.22p pd=1.88u as=0.13p ps=1.02u w=0.5u l=0.5u
X140 VCO_DFF_C_0.VCO_C_0.INV_2_5.OUT VCO_DFF_C_0.VCO_C_0.INV_2_5.IN.t37 VDD.t174 VDD.t173 pfet_03v3 ad=0.13p pd=1.02u as=0.22p ps=1.88u w=0.5u l=0.5u
X141 VCO_DFF_C_0.VCO_C_0.INV_2_0.OUT VCO_DFF_C_0.VCO_C_0.INV_2_0.IN.t35 VDD.t615 VDD.t614 pfet_03v3 ad=0.13p pd=1.02u as=0.22p ps=1.88u w=0.5u l=0.5u
X142 RES_74k_1.M.t2 VSS.t113 cap_mim_2f0_m4m5_noshield c_width=31u c_length=29u
X143 VSS UP.t5 a_31940_9626.t6 VSS.t600 nfet_03v3 ad=92.8f pd=0.92u as=92.8f ps=0.92u w=0.28u l=0.56u
X144 VDD VCO_DFF_C_0.VCO_C_0.INV_2_3.IN.t37 VCO_DFF_C_0.VCO_C_0.INV_2_3.OUT.t9 VDD.t795 pfet_03v3 ad=0.22p pd=1.88u as=0.13p ps=1.02u w=0.5u l=0.5u
X145 mux_magic_3.OR_magic_0.A a_19903_8443.t6 VDD.t557 VDD.t556 pfet_03v3 ad=0.291p pd=1.64u as=0.291p ps=1.64u w=1.12u l=0.56u
X146 VDD VCO_DFF_C_0.VCO_C_0.INV_2_5.IN.t38 VCO_DFF_C_0.VCO_C_0.INV_2_0.IN.t13 VDD.t175 pfet_03v3 ad=0.13p pd=1.02u as=0.13p ps=1.02u w=0.5u l=0.84u
X147 RES_74k_1.M.t1 VSS.t112 cap_mim_2f0_m4m5_noshield c_width=31u c_length=29u
X148 RES_74k_1.M.t1 VSS.t111 cap_mim_2f0_m4m5_noshield c_width=31u c_length=29u
X149 VDD VCO_DFF_C_0.VCO_C_0.OUTB.t16 VCO_DFF_C_0.DFF_3_mag_0.Tr_Gate_0.CLK.t11 VDD.t688 pfet_03v3 ad=0.22p pd=1.88u as=0.13p ps=1.02u w=0.5u l=0.5u
X150 VCO_DFF_C_0.VCO_C_0.INV_2_3.OUT VCO_DFF_C_0.VCO_C_0.INV_2_3.IN.t38 VSS.t768 VSS.t767 nfet_03v3 ad=0.13p pd=1.02u as=0.13p ps=1.02u w=0.5u l=0.5u
X151 VDD a_31468_10271.t7 a_31732_10267.t9 VDD.t599 pfet_03v3 ad=0.308p pd=2.28u as=0.308p ps=2.28u w=0.7u l=0.56u
X152 VDD VCO_DFF_C_0.DFF_3_mag_0.INV_2_1.OUT.t21 VCO_DFF_C_0.DFF_3_mag_0.INV_2_5.OUT.t5 VDD.t448 pfet_03v3 ad=0.22p pd=1.88u as=0.13p ps=1.02u w=0.5u l=0.5u
X153 VCO_DFF_C_0.VCO_C_0.OUTB VCO_DFF_C_0.VCO_C_0.INV_2_3.OUT.t14 VSS.t426 VSS.t425 nfet_03v3 ad=0.13p pd=1.02u as=0.13p ps=1.02u w=0.5u l=0.5u
X154 RES_74k_1.M.t3 VSS.t110 cap_mim_2f0_m4m5_noshield c_width=31u c_length=29u
X155 VDD mux_magic_2.OR_magic_0.A.t3 a_21437_12116.t7 VDD.t549 pfet_03v3 ad=0.291p pd=1.64u as=0.493p ps=3.12u w=1.12u l=0.56u
X156 RES_74k_1.M.t1 VSS.t109 cap_mim_2f0_m4m5_noshield c_width=31u c_length=29u
X157 VDD VCO_DFF_C_0.DFF_3_mag_0.Tr_Gate_0.OUT.t17 OUT.t1 VDD.t347 pfet_03v3 ad=0.13p pd=1.02u as=0.13p ps=1.02u w=0.5u l=0.5u
X158 VCO_DFF_C_0.DFF_3_mag_0.Tr_Gate_0.CLK VCO_DFF_C_0.VCO_C_0.OUTB.t17 VDD.t745 VDD.t679 pfet_03v3 ad=0.13p pd=1.02u as=0.13p ps=1.02u w=0.5u l=0.5u
X159 VDD VCO_DFF_C_0.VCO_C_0.INV_2_3.OUT.t15 VCO_DFF_C_0.VCO_C_0.OUTB.t10 VDD.t216 pfet_03v3 ad=0.22p pd=1.88u as=0.13p ps=1.02u w=0.5u l=0.5u
X160 RES_74k_1.M.t1 VSS.t108 cap_mim_2f0_m4m5_noshield c_width=31u c_length=29u
X161 VSS VCTRL2.t12 a_25706_n567.t32 VSS.t276 nfet_03v3 ad=0.13p pd=1.02u as=0.13p ps=1.02u w=0.5u l=0.84u
X162 VDD.t59 VDD.t57 VDD.t59 VDD.t58 pfet_03v3 ad=0.22p pd=1.88u as=0 ps=0 w=0.5u l=0.84u
X163 RES_74k_1.P.t2 RES_74k_1.P.t3 VDD.t78 ppolyf_u r_width=1.1u r_length=2.6u
X164 VSS VCTRL2.t13 a_25706_n567.t31 VSS.t276 nfet_03v3 ad=0.13p pd=1.02u as=0.13p ps=1.02u w=0.5u l=0.84u
X165 RES_74k_1.P.t99 RES_74k_1.P.t100 VDD.t79 ppolyf_u r_width=1.1u r_length=2.6u
X166 VDD VCO_DFF_C_0.VCO_C_0.INV_2_2.IN.t35 VCO_DFF_C_0.VCO_C_0.INV_2_3.IN.t1 VDD.t368 pfet_03v3 ad=0.13p pd=1.02u as=0.22p ps=1.88u w=0.5u l=0.84u
X167 UP a_29262_10725.t6 VDD.t214 VDD.t213 pfet_03v3 ad=0.493p pd=3.12u as=0.493p ps=3.12u w=1.12u l=0.56u
X168 VDD VCO_DFF_C_0.VCO_C_0.INV_2_0.IN.t36 VCO_DFF_C_0.VCO_C_0.INV_2_5.IN.t6 VDD.t187 pfet_03v3 ad=0.13p pd=1.02u as=0.13p ps=1.02u w=0.5u l=0.84u
X169 mux_magic_2.OR_magic_0.A a_19897_11741.t6 VSS.t695 VSS.t694 nfet_03v3 ad=0.493p pd=3.12u as=0.493p ps=3.12u w=1.12u l=0.56u
X170 VSS a_22967_8787.t7 a_22881_9554.t1 VSS.t733 nfet_03v3 ad=0.13p pd=1.02u as=0.13p ps=1.02u w=0.5u l=0.5u
X171 VCO_DFF_C_0.VCO_C_0.INV_2_2.IN VCO_DFF_C_0.VCO_C_0.INV_2_3.IN.t39 VDD.t798 VDD.t396 pfet_03v3 ad=0.13p pd=1.02u as=0.13p ps=1.02u w=0.5u l=0.84u
X172 RES_74k_1.M.t1 VSS.t107 cap_mim_2f0_m4m5_noshield c_width=31u c_length=29u
X173 VDD a_25557_8739.t3 PFD_T2_0.DOWN.t2 VDD.t667 pfet_03v3 ad=0.22p pd=1.88u as=0.13p ps=1.02u w=0.5u l=0.5u
X174 VCO_DFF_C_0.VCO_C_0.INV_2_0.OUT VCO_DFF_C_0.VCO_C_0.INV_2_0.IN.t37 VDD.t619 VDD.t618 pfet_03v3 ad=0.13p pd=1.02u as=0.13p ps=1.02u w=0.5u l=0.5u
X175 RES_74k_1.M.t0 a_42628_11460.t1 VDD.t78 ppolyf_u r_width=1.1u r_length=2.6u
X176 VDD OUT.t16 OUTB.t11 VDD.t350 pfet_03v3 ad=0.22p pd=1.88u as=0.13p ps=1.02u w=0.5u l=0.5u
X177 mux_magic_0.AND2_magic_0.A S2.t3 VDD.t333 VDD.t332 pfet_03v3 ad=0.493p pd=3.12u as=0.291p ps=1.64u w=1.12u l=0.56u
X178 a_46528_12082.t1 a_46228_11460.t1 VDD.t79 ppolyf_u r_width=1.1u r_length=2.6u
X179 VSS.t219 VSS.t218 VSS.t219 VSS.t139 nfet_03v3 ad=0.22p pd=1.88u as=0 ps=0 w=0.5u l=0.84u
X180 PFD_T2_0.INV_mag_0.IN a_22966_11778.t6 VDD.t309 VDD.t308 pfet_03v3 ad=0.13p pd=1.02u as=0.13p ps=1.02u w=0.5u l=0.5u
X181 VCO_DFF_C_0.DFF_3_mag_0.INV_2_1.OUT VCO_DFF_C_0.DFF_3_mag_0.INV_2_1.IN.t16 VDD.t678 VDD.t677 pfet_03v3 ad=0.13p pd=1.02u as=0.22p ps=1.88u w=0.5u l=0.5u
X182 a_45328_10426.t1 a_45628_9804.t1 VDD.t3 ppolyf_u r_width=1.1u r_length=2.6u
X183 VCO_DFF_C_0.VCO_C_0.OUT VCO_DFF_C_0.VCO_C_0.INV_2_4.IN.t15 VDD.t486 VDD.t482 pfet_03v3 ad=0.13p pd=1.02u as=0.13p ps=1.02u w=0.5u l=0.5u
X184 VCO_DFF_C_0.VCO_C_0.INV_2_3.IN VCO_DFF_C_0.VCO_C_0.INV_2_2.IN.t36 VDD.t371 VDD.t364 pfet_03v3 ad=0.22p pd=1.88u as=0.13p ps=1.02u w=0.5u l=0.84u
X185 RES_74k_1.P.t97 RES_74k_1.P.t98 VDD.t108 ppolyf_u r_width=1.1u r_length=2.6u
X186 PFD_T2_0.Buffer_V_2_1.IN PFD_T2_0.INV_mag_0.IN.t20 VDD.t786 VDD.t308 pfet_03v3 ad=0.22p pd=1.88u as=0.13p ps=1.02u w=0.5u l=0.5u
X187 VDD a_22967_8787.t8 PFD_T2_0.INV_mag_1.IN.t16 VDD.t724 pfet_03v3 ad=0.13p pd=1.02u as=0.13p ps=1.02u w=0.5u l=0.5u
X188 DN a_29415_9553.t6 VDD.t8 VDD.t7 pfet_03v3 ad=0.493p pd=3.12u as=0.493p ps=3.12u w=1.12u l=0.56u
X189 a_43828_9598.t0 a_43528_8976.t1 VDD.t4 ppolyf_u r_width=1.1u r_length=2.6u
X190 VCO_DFF_C_0.VCTRL S4.t3 VCTRL_IN.t3 VSS.t714 nfet_03v3 ad=0.37p pd=2.56u as=0.37p ps=2.56u w=0.84u l=0.5u
X191 VCTRL_IN a_42763_5679.t6 VCO_DFF_C_0.VCTRL.t4 VDD.t255 pfet_03v3 ad=0.218p pd=1.36u as=0.218p ps=1.36u w=0.84u l=0.5u
X192 VSS VCO_DFF_C_0.VCO_C_0.INV_2_2.IN.t37 VCO_DFF_C_0.VCO_C_0.INV_2_4.IN.t1 VSS.t526 nfet_03v3 ad=0.13p pd=1.02u as=0.13p ps=1.02u w=0.5u l=0.5u
X193 RES_74k_1.M.t1 VSS.t106 cap_mim_2f0_m4m5_noshield c_width=31u c_length=29u
X194 mux_magic_2.AND2_magic_0.A S1.t2 VDD.t270 VDD.t269 pfet_03v3 ad=0.493p pd=3.12u as=0.291p ps=1.64u w=1.12u l=0.56u
X195 a_42628_11254.t0 a_42628_10426.t1 VDD.t78 ppolyf_u r_width=1.1u r_length=2.6u
X196 a_46228_11254.t0 a_46528_10632.t0 VDD.t79 ppolyf_u r_width=1.1u r_length=2.6u
X197 VDD VCO_DFF_C_0.VCO_C_0.INV_2_2.IN.t38 VCO_DFF_C_0.VCO_C_0.INV_2_3.IN.t3 VDD.t372 pfet_03v3 ad=0.13p pd=1.02u as=0.13p ps=1.02u w=0.5u l=0.84u
X198 RES_74k_1.M.t1 VSS.t105 cap_mim_2f0_m4m5_noshield c_width=31u c_length=29u
X199 VCO_DFF_C_0.VCO_C_0.INV_2_2.IN VCO_DFF_C_0.VCO_C_0.INV_2_0.OUT.t14 a_34443_2598.t42 VSS.t480 nfet_03v3 ad=0.13p pd=1.02u as=0.13p ps=1.02u w=0.5u l=0.84u
X200 VCO_DFF_C_0.VCO_C_0.INV_2_3.IN VCO_DFF_C_0.VCO_C_0.INV_2_2.IN.t39 VDD.t376 VDD.t375 pfet_03v3 ad=0.13p pd=1.02u as=0.13p ps=1.02u w=0.5u l=0.84u
X201 VCO_DFF_C_0.DFF_3_mag_0.Tr_Gate_0.IN VCO_DFF_C_0.DFF_3_mag_0.Tr_Gate_0.CLK.t18 VCO_DFF_C_0.DFF_3_mag_0.Tr_Gate_0.OUT.t8 VSS.t670 nfet_03v3 ad=0.37p pd=2.56u as=0.37p ps=2.56u w=0.84u l=0.5u
X202 PFD_T2_0.Buffer_V_2_0.IN PFD_T2_0.INV_mag_0.OUT.t6 VSS.t488 VSS.t487 nfet_03v3 ad=0.13p pd=1.02u as=0.13p ps=1.02u w=0.5u l=0.5u
X203 VDD DIV_OUT.t2 a_19903_8443.t5 VDD.t693 pfet_03v3 ad=0.291p pd=1.64u as=0.291p ps=1.64u w=1.12u l=0.56u
X204 VDD mux_magic_1.OR_magic_0.A.t3 a_29415_8145.t4 VDD.t285 pfet_03v3 ad=0.291p pd=1.64u as=0.493p ps=3.12u w=1.12u l=0.56u
X205 VDD VCO_DFF_C_0.VCO_C_0.INV_2_5.IN.t39 VCO_DFF_C_0.VCO_C_0.INV_2_0.IN.t12 VDD.t165 pfet_03v3 ad=0.13p pd=1.02u as=0.22p ps=1.88u w=0.5u l=0.84u
X206 VCO_DFF_C_0.VCO_C_0.OUT VCO_DFF_C_0.VCO_C_0.INV_2_4.IN.t16 VDD.t490 VDD.t489 pfet_03v3 ad=0.13p pd=1.02u as=0.22p ps=1.88u w=0.5u l=0.5u
X207 VCO_DFF_C_0.VCO_C_0.INV_2_5.OUT VCO_DFF_C_0.VCO_C_0.INV_2_5.IN.t40 VSS.t267 VSS.t266 nfet_03v3 ad=0.13p pd=1.02u as=0.13p ps=1.02u w=0.5u l=0.5u
X208 RES_74k_1.M.t1 VSS.t104 cap_mim_2f0_m4m5_noshield c_width=31u c_length=29u
X209 RES_74k_1.M.t1 VSS.t103 cap_mim_2f0_m4m5_noshield c_width=31u c_length=29u
X210 VCO_DFF_C_0.VCO_C_0.INV_2_5.IN VCO_DFF_C_0.VCO_C_0.OUTB.t18 a_25706_n567.t51 VSS.t659 nfet_03v3 ad=0.22p pd=1.88u as=0.13p ps=1.02u w=0.5u l=0.84u
X211 mux_magic_0.OR_magic_0.A a_27722_11758.t7 VDD.t535 VDD.t534 pfet_03v3 ad=0.291p pd=1.64u as=0.291p ps=1.64u w=1.12u l=0.56u
X212 RES_74k_1.P.t44 RES_74k_1.P.t45 VDD.t80 ppolyf_u r_width=1.1u r_length=2.6u
X213 VSS.t217 VSS.t215 VSS.t217 VSS.t216 nfet_03v3 ad=0.22p pd=1.88u as=0 ps=0 w=0.5u l=0.84u
X214 RES_74k_1.M.t1 VSS.t102 cap_mim_2f0_m4m5_noshield c_width=31u c_length=29u
X215 VDD VCO_DFF_C_0.VCO_C_0.INV_2_2.IN.t40 VCO_DFF_C_0.VCO_C_0.INV_2_4.IN.t10 VDD.t377 pfet_03v3 ad=0.22p pd=1.88u as=0.13p ps=1.02u w=0.5u l=0.5u
X216 VCO_DFF_C_0.DFF_3_mag_0.Tr_Gate_0.OUT a_44716_n517.t6 VCO_DFF_C_0.DFF_3_mag_0.Tr_Gate_0.IN.t12 VDD.t564 pfet_03v3 ad=0.218p pd=1.36u as=0.37p ps=2.56u w=0.84u l=0.5u
X217 VSS ITAIL1.t4 ITAIL1.t5 VSS.t615 nfet_03v3 ad=0.158p pd=1.64u as=0.158p ps=1.64u w=0.28u l=0.56u
X218 a_45028_9598.t0 a_45328_8976.t1 VDD.t103 ppolyf_u r_width=1.1u r_length=2.6u
X219 VSS VCTRL2.t16 a_34443_2598.t33 VSS.t309 nfet_03v3 ad=0.13p pd=1.02u as=0.13p ps=1.02u w=0.5u l=0.84u
X220 RES_74k_1.P.t79 RES_74k_1.P.t80 VDD.t104 ppolyf_u r_width=1.1u r_length=2.6u
X221 RES_74k_1.P a_45158_5339.t6 VCO_DFF_C_0.VCTRL.t12 VDD.t252 pfet_03v3 ad=0.37p pd=2.56u as=0.218p ps=1.36u w=0.84u l=0.5u
X222 VSS VCTRL2.t18 a_34443_2598.t32 VSS.t281 nfet_03v3 ad=0.13p pd=1.02u as=0.13p ps=1.02u w=0.5u l=0.84u
X223 VDD F_IN.t1 a_19897_10547.t4 VDD.t589 pfet_03v3 ad=0.291p pd=1.64u as=0.291p ps=1.64u w=1.12u l=0.56u
X224 RES_74k_1.P ITAIL.t19 a_31732_10267.t5 VDD.t143 pfet_03v3 ad=0.158p pd=1.64u as=0.158p ps=1.64u w=0.28u l=0.56u
X225 VDD PFD_T2_0.FDIV.t4 a_22967_8787.t3 VDD.t724 pfet_03v3 ad=0.13p pd=1.02u as=0.13p ps=1.02u w=0.5u l=0.5u
X226 a_46528_8770.t1 RES_74k_1.P.t72 VDD.t102 ppolyf_u r_width=1.1u r_length=2.6u
X227 mux_magic_0.AND2_magic_0.A S2.t4 VDD.t335 VDD.t334 pfet_03v3 ad=0.291p pd=1.64u as=0.493p ps=3.12u w=1.12u l=0.56u
X228 a_43528_8770.t0 a_43228_8148.t1 VDD.t104 ppolyf_u r_width=1.1u r_length=2.6u
X229 VDD VCO_DFF_C_0.VCO_C_0.INV_2_0.IN.t38 VCO_DFF_C_0.VCO_C_0.INV_2_5.IN.t7 VDD.t165 pfet_03v3 ad=0.13p pd=1.02u as=0.22p ps=1.88u w=0.5u l=0.84u
X230 VDD S4.t4 A_MUX_0.Tr_Gate_1.CLK.t1 VDD.t698 pfet_03v3 ad=0.13p pd=1.02u as=0.13p ps=1.02u w=0.5u l=0.5u
X231 VDD VCO_DFF_C_0.VCO_C_0.OUTB.t19 a_44716_1837.t5 VDD.t566 pfet_03v3 ad=0.218p pd=1.36u as=0.218p ps=1.36u w=0.84u l=0.5u
X232 VDD.t56 VDD.t55 VDD.t56 VDD.t28 pfet_03v3 ad=0.22p pd=1.88u as=0 ps=0 w=0.5u l=0.84u
X233 PFD_T2_0.Buffer_V_2_1.IN PFD_T2_0.INV_mag_1.OUT.t5 VSS.t573 VSS.t572 nfet_03v3 ad=0.13p pd=1.02u as=0.13p ps=1.02u w=0.5u l=0.5u
X234 a_43528_12082.t1 a_43228_11460.t1 VDD.t104 ppolyf_u r_width=1.1u r_length=2.6u
X235 RES_74k_1.P a_45158_5339.t7 VCO_DFF_C_0.VCTRL.t13 VDD.t722 pfet_03v3 ad=0.218p pd=1.36u as=0.218p ps=1.36u w=0.84u l=0.5u
X236 VSS.t214 VSS.t212 VSS.t214 VSS.t213 nfet_03v3 ad=0.22p pd=1.88u as=0 ps=0 w=0.5u l=0.84u
X237 VCO_DFF_C_0.VCO_C_0.INV_2_2.IN VCO_DFF_C_0.VCO_C_0.INV_2_0.OUT.t15 a_34443_2598.t43 VSS.t481 nfet_03v3 ad=0.13p pd=1.02u as=0.13p ps=1.02u w=0.5u l=0.84u
X238 RES_74k_1.P.t60 RES_74k_1.P.t61 VDD.t102 ppolyf_u r_width=1.1u r_length=2.6u
X239 VSS VCTRL2.t21 a_34443_2598.t30 VSS.t281 nfet_03v3 ad=0.13p pd=1.02u as=0.13p ps=1.02u w=0.5u l=0.84u
X240 VDD VCO_DFF_C_0.VCO_C_0.INV_2_3.IN.t40 VCO_DFF_C_0.VCO_C_0.INV_2_2.IN.t11 VDD.t368 pfet_03v3 ad=0.13p pd=1.02u as=0.22p ps=1.88u w=0.5u l=0.84u
X241 PFD_T2_0.Buffer_V_2_1.IN PFD_T2_0.INV_mag_0.IN.t21 a_23836_10693.t4 VSS.t561 nfet_03v3 ad=0.13p pd=1.02u as=0.13p ps=1.02u w=0.5u l=0.5u
X242 ITAIL1 ITAIL1.t2 VSS.t614 VSS.t613 nfet_03v3 ad=0.158p pd=1.64u as=92.8f ps=0.92u w=0.28u l=0.56u
X243 mux_magic_1.AND2_magic_0.A S3.t4 VDD.t497 VDD.t303 pfet_03v3 ad=0.493p pd=3.12u as=0.291p ps=1.64u w=1.12u l=0.56u
X244 RES_74k_1.P.t62 RES_74k_1.P.t63 VDD.t104 ppolyf_u r_width=1.1u r_length=2.6u
X245 VCO_DFF_C_0.DFF_3_mag_0.INV_2_1.IN a_41879_n196.t6 VCO_DFF_C_0.DFF_3_mag_0.INV_2_5.OUT.t16 VDD.t148 pfet_03v3 ad=0.218p pd=1.36u as=0.37p ps=2.56u w=0.84u l=0.5u
X246 VDD VCO_DFF_C_0.VCO_C_0.INV_2_3.IN.t41 VCO_DFF_C_0.VCO_C_0.INV_2_2.IN.t10 VDD.t398 pfet_03v3 ad=0.13p pd=1.02u as=0.22p ps=1.88u w=0.5u l=0.84u
X247 VDD mux_magic_3.OR_magic_0.A.t5 a_21443_8068.t2 VDD.t9 pfet_03v3 ad=0.291p pd=1.64u as=0.493p ps=3.12u w=1.12u l=0.56u
X248 RES_74k_1.P A_MUX_0.Tr_Gate_1.CLK.t16 VCO_DFF_C_0.VCTRL.t2 VSS.t249 nfet_03v3 ad=0.37p pd=2.56u as=0.37p ps=2.56u w=0.84u l=0.5u
X249 RES_74k_1.M.t1 VSS.t101 cap_mim_2f0_m4m5_noshield c_width=31u c_length=29u
X250 VSS.t211 VSS.t210 VSS.t211 VSS.t133 nfet_03v3 ad=0.22p pd=1.88u as=0 ps=0 w=0.5u l=0.84u
X251 VSS S4.t5 A_MUX_0.Tr_Gate_1.CLK.t2 VSS.t715 nfet_03v3 ad=0.13p pd=1.02u as=0.13p ps=1.02u w=0.5u l=0.5u
X252 mux_magic_2.AND2_magic_0.A S1.t3 VDD.t272 VDD.t271 pfet_03v3 ad=0.291p pd=1.64u as=0.493p ps=3.12u w=1.12u l=0.56u
X253 a_43228_11254.t0 a_43528_10632.t1 VDD.t104 ppolyf_u r_width=1.1u r_length=2.6u
X254 RES_74k_1.M.t1 VSS.t100 cap_mim_2f0_m4m5_noshield c_width=31u c_length=29u
X255 VSS PFD_T2_0.INV_mag_1.IN.t22 a_23837_9553.t2 VSS.t260 nfet_03v3 ad=0.22p pd=1.88u as=0.13p ps=1.02u w=0.5u l=0.5u
X256 a_44728_8770.t0 a_45028_8148.t0 VDD.t99 ppolyf_u r_width=1.1u r_length=2.6u
X257 VDD VCO_DFF_C_0.DFF_3_mag_0.Tr_Gate_0.CLK.t20 a_44716_n517.t3 VDD.t565 pfet_03v3 ad=0.37p pd=2.56u as=0.218p ps=1.36u w=0.84u l=0.5u
X258 RES_74k_1.M.t1 VSS.t99 cap_mim_2f0_m4m5_noshield c_width=31u c_length=29u
X259 VSS.t209 VSS.t208 VSS.t209 VSS.t136 nfet_03v3 ad=0.22p pd=1.88u as=0 ps=0 w=0.5u l=0.84u
X260 VDD S4.t6 A_MUX_0.Tr_Gate_1.CLK.t3 VDD.t706 pfet_03v3 ad=0.22p pd=1.88u as=0.13p ps=1.02u w=0.5u l=0.5u