* NGSPICE file created from Output_Div_Mag_flat.ext - technology: gf180mcuC

.subckt pex_Output_Div_Mag VSS VDD RST Vdiv OPA1 OPA0 CLK
X0 Vdiv mux_4x1_0.mux_2x1_1.nand2_1.IN2 VDD.t82 VDD.t81 pfet_03v3 ad=0.208p pd=1.32u as=0.352p ps=2.48u w=0.8u l=0.28u
X1 CLK_div_3_mag_0.JK_FF_mag_0.nand2_mag_3.IN1 CLK.t0 dec_2x4_ibr_mag_0.D2 dec_2x4_ibr_mag_0.D2 pfet_03v3 ad=0.352p pd=2.48u as=0.352p ps=2.48u w=0.8u l=0.28u
X2 CLK_div_4_mag_0.CLK_div_2_mag_1.JK_FF_mag_0.nand3_mag_1.OUT CLK_div_4_mag_0.CLK_div_2_mag_1.JK_FF_mag_0.nand3_mag_1.IN1 a_4622_n7262# VSS.t144 nfet_03v3 ad=0.29p pd=2.2u as=0.172p ps=1.18u w=0.66u l=0.28u
X3 CLK_div_2_mag_0.JK_FF_mag_0.nand3_mag_1.IN1 CLK_div_2_mag_0.JK_FF_mag_0.nand3_mag_1.OUT a_1119_n1462# VSS.t161 nfet_03v3 ad=0.194p pd=1.76u as=0.114p ps=0.96u w=0.44u l=0.28u
X4 CLK_div_3_mag_0.JK_FF_mag_0.nand3_mag_1.OUT CLK_div_3_mag_0.JK_FF_mag_0.nand3_mag_2.OUT dec_2x4_ibr_mag_0.D2 dec_2x4_ibr_mag_0.D2 pfet_03v3 ad=0.208p pd=1.32u as=0.352p ps=2.48u w=0.8u l=0.28u
X5 dec_2x4_ibr_mag_0.and_2_ibr_0.nverterlayout_ibr_0.IN dec_2x4_ibr_mag_0.and_2_ibr_0.IN2 VDD.t43 VDD.t42 pfet_03v3 ad=0.208p pd=1.32u as=0.352p ps=2.48u w=0.8u l=0.28u
X6 a_1249_n4941# RST.t0 a_1089_n4941# VSS.t151 nfet_03v3 ad=0.172p pd=1.18u as=0.172p ps=1.18u w=0.66u l=0.28u
X7 CLK_div_2_mag_0.JK_FF_mag_0.nand3_mag_1.OUT CLK_div_2_mag_0.JK_FF_mag_0.nand3_mag_1.IN1 a_1273_n2603# VSS.t154 nfet_03v3 ad=0.29p pd=2.2u as=0.172p ps=1.18u w=0.66u l=0.28u
X8 a_1837_n2559# CLK_div_2_mag_0.JK_FF_mag_0.nand3_mag_1.OUT VSS.t160 VSS.t159 nfet_03v3 ad=0.114p pd=0.96u as=0.194p ps=1.76u w=0.44u l=0.28u
X9 a_1784_n6122# CLK_div_4_mag_0.CLK_div_2_mag_0.JK_FF_mag_0.nand3_mag_1.IN1 VSS.t117 VSS.t116 nfet_03v3 ad=0.114p pd=0.96u as=0.194p ps=1.76u w=0.44u l=0.28u
X10 CLK_div_4_mag_0.CLK_div_2_mag_0.JK_FF_mag_0.nand3_mag_1.IN1 CLK_div_4_mag_0.CLK_div_2_mag_0.JK_FF_mag_0.nand3_mag_0.OUT CLK_div_4_mag_0.VDD CLK_div_4_mag_0.VDD pfet_03v3 ad=0.208p pd=1.32u as=0.352p ps=2.48u w=0.8u l=0.28u
X11 CLK_div_3_mag_0.JK_FF_mag_1.nand3_mag_0.OUT CLK_div_3_mag_0.JK_FF_mag_1.QB dec_2x4_ibr_mag_0.D2 dec_2x4_ibr_mag_0.D2 pfet_03v3 ad=0.352p pd=2.48u as=0.208p ps=1.32u w=0.8u l=0.28u
X12 dec_2x4_ibr_mag_0.D1 CLK_div_2_mag_0.JK_FF_mag_0.QB mux_4x1_0.I1 dec_2x4_ibr_mag_0.D1 pfet_03v3 ad=0.352p pd=2.48u as=0.208p ps=1.32u w=0.8u l=0.28u
X13 CLK_div_3_mag_0.Q1 CLK_div_3_mag_0.JK_FF_mag_1.nand2_mag_1.IN2 dec_2x4_ibr_mag_0.D2 dec_2x4_ibr_mag_0.D2 pfet_03v3 ad=0.208p pd=1.32u as=0.352p ps=2.48u w=0.8u l=0.28u
X14 a_3542_n4941# CLK.t1 a_3382_n4941# VSS.t109 nfet_03v3 ad=0.172p pd=1.18u as=0.172p ps=1.18u w=0.66u l=0.28u
X15 CLK_div_4_mag_0.VDD dec_2x4_ibr_mag_0.and_2_ibr_3.nverterlayout_ibr_0.IN VSS.t121 VSS.t120 nfet_03v3 ad=0.152p pd=1.64u as=0.152p ps=1.64u w=0.22u l=0.28u
X16 a_5240_n3800# CLK_div_3_mag_0.JK_FF_mag_0.nand2_mag_1.IN2 VSS.t168 VSS.t167 nfet_03v3 ad=0.114p pd=0.96u as=0.194p ps=1.76u w=0.44u l=0.28u
X17 CLK_div_4_mag_0.CLK_div_2_mag_1.JK_FF_mag_0.QB CLK_div_4_mag_0.CLK_div_2_mag_1.JK_FF_mag_0.nand2_mag_4.IN2 CLK_div_4_mag_0.VDD CLK_div_4_mag_0.VDD pfet_03v3 ad=0.208p pd=1.32u as=0.352p ps=2.48u w=0.8u l=0.28u
X18 CLK_div_4_mag_0.VDD CLK_div_4_mag_0.CLK_div_2_mag_0.Vdiv2 CLK_div_4_mag_0.CLK_div_2_mag_0.JK_FF_mag_0.QB CLK_div_4_mag_0.VDD pfet_03v3 ad=0.352p pd=2.48u as=0.208p ps=1.32u w=0.8u l=0.28u
X19 CLK_div_4_mag_0.CLK_div_2_mag_1.JK_FF_mag_0.nand2_mag_1.IN2 CLK_div_4_mag_0.CLK_div_2_mag_1.JK_FF_mag_0.nand3_mag_1.IN1 CLK_div_4_mag_0.VDD CLK_div_4_mag_0.VDD pfet_03v3 ad=0.208p pd=1.32u as=0.352p ps=2.48u w=0.8u l=0.28u
X20 mux_4x1_0.mux_2x1_1.nand2_2.OUT mux_4x1_0.mux_2x1_2.OUT a_9668_n2080# VSS.t14 nfet_03v3 ad=0.194p pd=1.76u as=0.114p ps=0.96u w=0.44u l=0.28u
X21 CLK_div_3_mag_0.JK_FF_mag_0.nand3_mag_0.OUT CLK_div_3_mag_0.Q1 dec_2x4_ibr_mag_0.D2 dec_2x4_ibr_mag_0.D2 pfet_03v3 ad=0.208p pd=1.32u as=0.352p ps=2.48u w=0.8u l=0.28u
X22 dec_2x4_ibr_mag_0.D2 CLK_div_3_mag_0.JK_FF_mag_0.nand2_mag_3.IN1 CLK_div_3_mag_0.JK_FF_mag_0.nand2_mag_1.IN2 dec_2x4_ibr_mag_0.D2 pfet_03v3 ad=0.352p pd=2.48u as=0.208p ps=1.32u w=0.8u l=0.28u
X23 a_1813_n4897# CLK_div_3_mag_0.JK_FF_mag_1.nand3_mag_1.OUT VSS.t22 VSS.t21 nfet_03v3 ad=0.114p pd=0.96u as=0.194p ps=1.76u w=0.44u l=0.28u
X24 a_3794_n29# dec_2x4_ibr_mag_0.and_2_ibr_0.IN2 VSS.t132 VSS.t131 nfet_03v3 ad=0.114p pd=0.96u as=0.194p ps=1.76u w=0.44u l=0.28u
X25 CLK_div_4_mag_0.CLK_div_2_mag_1.JK_FF_mag_0.nand2_mag_3.IN1 CLK_div_4_mag_0.CLK_div_2_mag_0.Vdiv2 CLK_div_4_mag_0.VDD CLK_div_4_mag_0.VDD pfet_03v3 ad=0.352p pd=2.48u as=0.352p ps=2.48u w=0.8u l=0.28u
X26 Buffer_delayed_mag_0.Inverter_delayed_mag_0.IN CLK.t2 VSS.t108 VSS.t107 nfet_03v3 ad=0.152p pd=1.64u as=0.152p ps=1.64u w=0.22u l=1u
X27 CLK_div_3_mag_0.JK_FF_mag_0.nand3_mag_1.IN1 CLK_div_3_mag_0.JK_FF_mag_0.nand3_mag_1.OUT a_4112_n3800# VSS.t40 nfet_03v3 ad=0.194p pd=1.76u as=0.114p ps=0.96u w=0.44u l=0.28u
X28 a_5726_n28# dec_2x4_ibr_mag_0.and_2_ibr_0.IN2 VSS.t130 VSS.t129 nfet_03v3 ad=0.114p pd=0.96u as=0.194p ps=1.76u w=0.44u l=0.28u
X29 VDD mux_4x1_0.mux_2x1_0.nand2_2.OUT mux_4x1_0.mux_2x1_1.I1 VDD.t28 pfet_03v3 ad=0.352p pd=2.48u as=0.208p ps=1.32u w=0.8u l=0.28u
X30 CLK_div_4_mag_0.CLK_div_2_mag_1.JK_FF_mag_0.nand2_mag_4.IN2 CLK_div_4_mag_0.CLK_div_2_mag_1.JK_FF_mag_0.nand2_mag_3.IN1 a_5186_n7218# VSS.t141 nfet_03v3 ad=0.194p pd=1.76u as=0.114p ps=0.96u w=0.44u l=0.28u
X31 CLK_div_4_mag_0.CLK_div_2_mag_1.JK_FF_mag_0.nand3_mag_1.OUT CLK_div_4_mag_0.CLK_div_2_mag_1.JK_FF_mag_0.nand3_mag_1.IN1 CLK_div_4_mag_0.VDD CLK_div_4_mag_0.VDD pfet_03v3 ad=0.352p pd=2.48u as=0.208p ps=1.32u w=0.8u l=0.28u
X32 a_531_n3844# CLK.t3 a_371_n3844# VSS.t106 nfet_03v3 ad=0.172p pd=1.18u as=0.172p ps=1.18u w=0.66u l=0.28u
X33 dec_2x4_ibr_mag_0.and_2_ibr_3.nverterlayout_ibr_0.IN OPA1.t0 a_6692_n28# VSS.t33 nfet_03v3 ad=0.194p pd=1.76u as=0.114p ps=0.96u w=0.44u l=0.28u
X34 CLK_div_2_mag_0.JK_FF_mag_0.nand3_mag_0.OUT CLK_div_2_mag_0.JK_FF_mag_0.QB a_555_n1506# VSS.t11 nfet_03v3 ad=0.29p pd=2.2u as=0.172p ps=1.18u w=0.66u l=0.28u
X35 mux_4x1_0.mux_2x1_2.nand2_2.OUT mux_4x1_0.I0 a_7416_n2080# VSS.t194 nfet_03v3 ad=0.194p pd=1.76u as=0.114p ps=0.96u w=0.44u l=0.28u
X36 a_7416_n1480# mux_4x1_0.mux_2x1_2.nand2_1.IN2 VSS.t5 VSS.t4 nfet_03v3 ad=0.114p pd=0.96u as=0.194p ps=1.76u w=0.44u l=0.28u
X37 dec_2x4_ibr_mag_0.D2 RST.t1 CLK_div_3_mag_0.JK_FF_mag_1.nand3_mag_1.OUT dec_2x4_ibr_mag_0.D2 pfet_03v3 ad=0.208p pd=1.32u as=0.208p ps=1.32u w=0.8u l=0.28u
X38 a_490_n7263# CLK_div_4_mag_0.VDD VSS.t180 VSS.t179 nfet_03v3 ad=0.172p pd=1.18u as=0.29p ps=2.2u w=0.66u l=0.28u
X39 VDD mux_4x1_0.mux_2x1_2.OUT mux_4x1_0.mux_2x1_1.nand2_2.OUT VDD.t6 pfet_03v3 ad=0.352p pd=2.48u as=0.208p ps=1.32u w=0.8u l=0.28u
X40 dec_2x4_ibr_mag_0.D2 CLK_div_3_mag_0.JK_FF_mag_1.nand2_mag_3.IN1 CLK_div_3_mag_0.JK_FF_mag_1.nand2_mag_4.IN2 dec_2x4_ibr_mag_0.D2 pfet_03v3 ad=0.352p pd=2.48u as=0.208p ps=1.32u w=0.8u l=0.28u
X41 VDD OPA1.t1 dec_2x4_ibr_mag_0.and_2_ibr_2.nverterlayout_ibr_0.IN VDD.t9 pfet_03v3 ad=0.352p pd=2.48u as=0.208p ps=1.32u w=0.8u l=0.28u
X42 dec_2x4_ibr_mag_0.and_2_ibr_0.IN1 OPA1.t2 VDD.t5 VDD.t4 pfet_03v3 ad=0.352p pd=2.48u as=0.352p ps=2.48u w=0.8u l=0.28u
X43 a_9105_n1480# mux_4x1_0.mux_2x1_1.I1 VSS.t156 VSS.t155 nfet_03v3 ad=0.114p pd=0.96u as=0.194p ps=1.76u w=0.44u l=0.28u
X44 dec_2x4_ibr_mag_0.D1 CLK.t4 CLK_div_2_mag_0.JK_FF_mag_0.nand3_mag_2.OUT dec_2x4_ibr_mag_0.D1 pfet_03v3 ad=0.208p pd=1.32u as=0.208p ps=1.32u w=0.8u l=0.28u
X45 dec_2x4_ibr_mag_0.D2 CLK.t5 CLK_div_3_mag_0.JK_FF_mag_0.nand3_mag_2.OUT dec_2x4_ibr_mag_0.D2 pfet_03v3 ad=0.208p pd=1.32u as=0.208p ps=1.32u w=0.8u l=0.28u
X46 a_2401_n2559# CLK_div_2_mag_0.JK_FF_mag_0.nand2_mag_4.IN2 VSS.t3 VSS.t2 nfet_03v3 ad=0.114p pd=0.96u as=0.194p ps=1.76u w=0.44u l=0.28u
X47 CLK_div_4_mag_0.CLK_div_2_mag_0.JK_FF_mag_0.nand2_mag_4.IN2 CLK_div_4_mag_0.CLK_div_2_mag_0.JK_FF_mag_0.nand3_mag_1.OUT CLK_div_4_mag_0.VDD CLK_div_4_mag_0.VDD pfet_03v3 ad=0.208p pd=1.32u as=0.352p ps=2.48u w=0.8u l=0.28u
X48 CLK_div_3_mag_0.JK_FF_mag_0.nand3_mag_0.OUT CLK_div_3_mag_0.JK_FF_mag_1.K.t3 a_3548_n3844# VSS.t19 nfet_03v3 ad=0.29p pd=2.2u as=0.172p ps=1.18u w=0.66u l=0.28u
X49 CLK_div_3_mag_0.JK_FF_mag_0.nand3_mag_1.OUT CLK_div_3_mag_0.JK_FF_mag_0.nand3_mag_1.IN1 a_4266_n4941# VSS.t78 nfet_03v3 ad=0.29p pd=2.2u as=0.172p ps=1.18u w=0.66u l=0.28u
X50 dec_2x4_ibr_mag_0.and_2_ibr_1.nverterlayout_ibr_0.IN OPA0.t0 VDD.t68 VDD.t67 pfet_03v3 ad=0.208p pd=1.32u as=0.352p ps=2.48u w=0.8u l=0.28u
X51 CLK_div_4_mag_0.CLK_div_2_mag_1.JK_FF_mag_0.nand2_mag_4.IN2 CLK_div_4_mag_0.CLK_div_2_mag_1.JK_FF_mag_0.nand3_mag_1.OUT CLK_div_4_mag_0.VDD CLK_div_4_mag_0.VDD pfet_03v3 ad=0.208p pd=1.32u as=0.352p ps=2.48u w=0.8u l=0.28u
X52 CLK_div_4_mag_0.CLK_div_2_mag_1.JK_FF_mag_0.nand3_mag_1.IN1 CLK_div_4_mag_0.CLK_div_2_mag_1.JK_FF_mag_0.nand3_mag_0.OUT CLK_div_4_mag_0.VDD CLK_div_4_mag_0.VDD pfet_03v3 ad=0.208p pd=1.32u as=0.352p ps=2.48u w=0.8u l=0.28u
X53 VDD mux_4x1_0.I0 mux_4x1_0.mux_2x1_2.nand2_2.OUT VDD.t72 pfet_03v3 ad=0.352p pd=2.48u as=0.208p ps=1.32u w=0.8u l=0.28u
X54 VDD dec_2x4_ibr_mag_0.and_2_ibr_0.IN1 dec_2x4_ibr_mag_0.and_2_ibr_0.nverterlayout_ibr_0.IN VDD.t58 pfet_03v3 ad=0.352p pd=2.48u as=0.208p ps=1.32u w=0.8u l=0.28u
X55 dec_2x4_ibr_mag_0.D1 dec_2x4_ibr_mag_0.and_2_ibr_1.nverterlayout_ibr_0.IN VDD.t37 VDD.t36 pfet_03v3 ad=0.352p pd=2.48u as=0.352p ps=2.48u w=0.8u l=0.28u
X56 dec_2x4_ibr_mag_0.D1 CLK_div_2_mag_0.JK_FF_mag_0.nand2_mag_3.IN1 CLK_div_2_mag_0.JK_FF_mag_0.nand2_mag_1.IN2 dec_2x4_ibr_mag_0.D1 pfet_03v3 ad=0.352p pd=2.48u as=0.208p ps=1.32u w=0.8u l=0.28u
X57 CLK_div_2_mag_0.JK_FF_mag_0.nand3_mag_1.OUT CLK_div_2_mag_0.JK_FF_mag_0.nand3_mag_2.OUT dec_2x4_ibr_mag_0.D1 dec_2x4_ibr_mag_0.D1 pfet_03v3 ad=0.208p pd=1.32u as=0.352p ps=2.48u w=0.8u l=0.28u
X58 dec_2x4_ibr_mag_0.D2 CLK_div_3_mag_0.JK_FF_mag_1.K.t4 CLK_div_3_mag_0.Q0 dec_2x4_ibr_mag_0.D2 pfet_03v3 ad=0.352p pd=2.48u as=0.208p ps=1.32u w=0.8u l=0.28u
X59 CLK_div_3_mag_0.JK_FF_mag_0.nand2_mag_4.IN2 CLK_div_3_mag_0.JK_FF_mag_0.nand2_mag_3.IN1 a_4830_n4897# VSS.t35 nfet_03v3 ad=0.194p pd=1.76u as=0.114p ps=0.96u w=0.44u l=0.28u
X60 a_4622_n7262# RST.t2 a_4462_n7262# VSS.t149 nfet_03v3 ad=0.172p pd=1.18u as=0.172p ps=1.18u w=0.66u l=0.28u
X61 a_3904_n6165# CLK_div_4_mag_0.CLK_div_2_mag_0.Vdiv2 a_3744_n6165# VSS.t86 nfet_03v3 ad=0.172p pd=1.18u as=0.172p ps=1.18u w=0.66u l=0.28u
X62 CLK_div_2_mag_0.JK_FF_mag_0.nand2_mag_3.IN1 CLK.t6 VSS.t105 VSS.t104 nfet_03v3 ad=0.152p pd=1.64u as=0.152p ps=1.64u w=0.22u l=0.28u
X63 CLK_div_3_mag_0.JK_FF_mag_1.QB CLK_div_3_mag_0.JK_FF_mag_1.nand2_mag_4.IN2 dec_2x4_ibr_mag_0.D2 dec_2x4_ibr_mag_0.D2 pfet_03v3 ad=0.208p pd=1.32u as=0.352p ps=2.48u w=0.8u l=0.28u
X64 a_1119_n1462# CLK_div_2_mag_0.JK_FF_mag_0.nand3_mag_0.OUT VSS.t189 VSS.t188 nfet_03v3 ad=0.114p pd=0.96u as=0.194p ps=1.76u w=0.44u l=0.28u
X65 mux_4x1_0.mux_2x1_0.nand2_1.IN2 CLK_div_4_mag_0.Vdiv4 VDD.t54 VDD.t53 pfet_03v3 ad=0.208p pd=1.32u as=0.352p ps=2.48u w=0.8u l=0.28u
X66 CLK_div_4_mag_0.CLK_div_2_mag_0.JK_FF_mag_0.nand3_mag_2.OUT CLK_div_4_mag_0.VDD CLK_div_4_mag_0.VDD CLK_div_4_mag_0.VDD pfet_03v3 ad=0.208p pd=1.32u as=0.352p ps=2.48u w=0.8u l=0.28u
X67 dec_2x4_ibr_mag_0.and_2_ibr_0.nverterlayout_ibr_0.IN dec_2x4_ibr_mag_0.and_2_ibr_0.IN1 a_3794_n29# VSS.t182 nfet_03v3 ad=0.194p pd=1.76u as=0.114p ps=0.96u w=0.44u l=0.28u
X68 a_656_n6166# CLK.t7 a_496_n6166# VSS.t103 nfet_03v3 ad=0.172p pd=1.18u as=0.172p ps=1.18u w=0.66u l=0.28u
X69 dec_2x4_ibr_mag_0.D0 dec_2x4_ibr_mag_0.and_2_ibr_0.nverterlayout_ibr_0.IN VDD.t17 VDD.t16 pfet_03v3 ad=0.352p pd=2.48u as=0.352p ps=2.48u w=0.8u l=0.28u
X70 dec_2x4_ibr_mag_0.D2 dec_2x4_ibr_mag_0.and_2_ibr_2.nverterlayout_ibr_0.IN VSS.t137 VSS.t136 nfet_03v3 ad=0.152p pd=1.64u as=0.152p ps=1.64u w=0.22u l=0.28u
X71 dec_2x4_ibr_mag_0.D2 CLK.t8 CLK_div_3_mag_0.JK_FF_mag_1.nand3_mag_0.OUT dec_2x4_ibr_mag_0.D2 pfet_03v3 ad=0.208p pd=1.32u as=0.208p ps=1.32u w=0.8u l=0.28u
X72 CLK_div_3_mag_0.JK_FF_mag_0.nand3_mag_1.OUT CLK_div_3_mag_0.JK_FF_mag_0.nand3_mag_1.IN1 dec_2x4_ibr_mag_0.D2 dec_2x4_ibr_mag_0.D2 pfet_03v3 ad=0.352p pd=2.48u as=0.208p ps=1.32u w=0.8u l=0.28u
X73 CLK_div_2_mag_0.JK_FF_mag_0.nand3_mag_0.OUT dec_2x4_ibr_mag_0.D1 dec_2x4_ibr_mag_0.D1 dec_2x4_ibr_mag_0.D1 pfet_03v3 ad=0.208p pd=1.32u as=0.352p ps=2.48u w=0.8u l=0.28u
X74 mux_4x1_0.I1 CLK_div_2_mag_0.JK_FF_mag_0.nand2_mag_1.IN2 dec_2x4_ibr_mag_0.D1 dec_2x4_ibr_mag_0.D1 pfet_03v3 ad=0.208p pd=1.32u as=0.352p ps=2.48u w=0.8u l=0.28u
X75 dec_2x4_ibr_mag_0.D2 CLK_div_3_mag_0.Q0 CLK_div_3_mag_0.JK_FF_mag_1.K.t0 dec_2x4_ibr_mag_0.D2 pfet_03v3 ad=0.352p pd=2.48u as=0.208p ps=1.32u w=0.8u l=0.28u
X76 CLK_div_3_mag_0.JK_FF_mag_1.nand2_mag_1.IN2 CLK_div_3_mag_0.JK_FF_mag_1.nand3_mag_1.IN1 dec_2x4_ibr_mag_0.D2 dec_2x4_ibr_mag_0.D2 pfet_03v3 ad=0.208p pd=1.32u as=0.352p ps=2.48u w=0.8u l=0.28u
X77 CLK_div_4_mag_0.CLK_div_2_mag_0.JK_FF_mag_0.QB CLK_div_4_mag_0.CLK_div_2_mag_0.JK_FF_mag_0.nand2_mag_4.IN2 CLK_div_4_mag_0.VDD CLK_div_4_mag_0.VDD pfet_03v3 ad=0.208p pd=1.32u as=0.352p ps=2.48u w=0.8u l=0.28u
X78 CLK_div_4_mag_0.CLK_div_2_mag_0.JK_FF_mag_0.nand2_mag_1.IN2 CLK_div_4_mag_0.CLK_div_2_mag_0.JK_FF_mag_0.nand3_mag_1.IN1 CLK_div_4_mag_0.VDD CLK_div_4_mag_0.VDD pfet_03v3 ad=0.208p pd=1.32u as=0.352p ps=2.48u w=0.8u l=0.28u
X79 a_4676_n3800# CLK_div_3_mag_0.JK_FF_mag_0.nand3_mag_1.IN1 VSS.t77 VSS.t76 nfet_03v3 ad=0.114p pd=0.96u as=0.194p ps=1.76u w=0.44u l=0.28u
X80 dec_2x4_ibr_mag_0.D1 CLK_div_2_mag_0.JK_FF_mag_0.nand3_mag_1.OUT CLK_div_2_mag_0.JK_FF_mag_0.nand3_mag_1.IN1 dec_2x4_ibr_mag_0.D1 pfet_03v3 ad=0.352p pd=2.48u as=0.208p ps=1.32u w=0.8u l=0.28u
X81 CLK_div_3_mag_0.JK_FF_mag_1.nand3_mag_1.IN1 CLK_div_3_mag_0.JK_FF_mag_1.nand3_mag_0.OUT dec_2x4_ibr_mag_0.D2 dec_2x4_ibr_mag_0.D2 pfet_03v3 ad=0.208p pd=1.32u as=0.352p ps=2.48u w=0.8u l=0.28u
X82 a_389_n2603# dec_2x4_ibr_mag_0.D1 VSS.t148 VSS.t147 nfet_03v3 ad=0.172p pd=1.18u as=0.29p ps=2.2u w=0.66u l=0.28u
X83 a_4112_n3800# CLK_div_3_mag_0.JK_FF_mag_0.nand3_mag_0.OUT VSS.t42 VSS.t41 nfet_03v3 ad=0.114p pd=0.96u as=0.194p ps=1.76u w=0.44u l=0.28u
X84 CLK_div_4_mag_0.CLK_div_2_mag_0.JK_FF_mag_0.nand2_mag_4.IN2 CLK_div_4_mag_0.CLK_div_2_mag_0.JK_FF_mag_0.nand2_mag_3.IN1 a_1938_n7219# VSS.t80 nfet_03v3 ad=0.194p pd=1.76u as=0.114p ps=0.96u w=0.44u l=0.28u
X85 mux_4x1_0.mux_2x1_1.I1 mux_4x1_0.mux_2x1_0.nand2_1.IN2 VDD.t62 VDD.t61 pfet_03v3 ad=0.208p pd=1.32u as=0.352p ps=2.48u w=0.8u l=0.28u
X86 CLK_div_3_mag_0.JK_FF_mag_0.nand3_mag_0.OUT CLK_div_3_mag_0.JK_FF_mag_1.K.t5 dec_2x4_ibr_mag_0.D2 dec_2x4_ibr_mag_0.D2 pfet_03v3 ad=0.352p pd=2.48u as=0.208p ps=1.32u w=0.8u l=0.28u
X87 CLK_div_4_mag_0.VDD RST.t3 CLK_div_4_mag_0.CLK_div_2_mag_1.JK_FF_mag_0.nand3_mag_1.OUT CLK_div_4_mag_0.VDD pfet_03v3 ad=0.208p pd=1.32u as=0.208p ps=1.32u w=0.8u l=0.28u
X88 CLK_div_4_mag_0.VDD CLK_div_4_mag_0.CLK_div_2_mag_0.Vdiv2 CLK_div_4_mag_0.CLK_div_2_mag_1.JK_FF_mag_0.nand3_mag_0.OUT CLK_div_4_mag_0.VDD pfet_03v3 ad=0.208p pd=1.32u as=0.208p ps=1.32u w=0.8u l=0.28u
X89 a_7416_n2080# mux_4x1_0.mux_2x1_2.nverterlayout_0.OUT VSS.t69 VSS.t4 nfet_03v3 ad=0.114p pd=0.96u as=0.194p ps=1.76u w=0.44u l=0.28u
X90 CLK_div_4_mag_0.CLK_div_2_mag_1.JK_FF_mag_0.nand3_mag_2.OUT CLK_div_4_mag_0.Vdiv4 a_3898_n7262# VSS.t172 nfet_03v3 ad=0.29p pd=2.2u as=0.172p ps=1.18u w=0.66u l=0.28u
X91 VDD OPA0.t1 mux_4x1_0.mux_2x1_2.nand2_1.IN2 VDD.t69 pfet_03v3 ad=0.352p pd=2.48u as=0.208p ps=1.32u w=0.8u l=0.28u
X92 a_555_n1506# CLK.t9 a_395_n1506# VSS.t102 nfet_03v3 ad=0.172p pd=1.18u as=0.172p ps=1.18u w=0.66u l=0.28u
X93 CLK_div_4_mag_0.CLK_div_2_mag_1.JK_FF_mag_0.QB CLK_div_4_mag_0.Vdiv4 a_5750_n7218# VSS.t171 nfet_03v3 ad=0.194p pd=1.76u as=0.114p ps=0.96u w=0.44u l=0.28u
X94 CLK_div_3_mag_0.JK_FF_mag_1.nand2_mag_3.IN1 CLK.t10 VSS.t101 VSS.t100 nfet_03v3 ad=0.152p pd=1.64u as=0.152p ps=1.64u w=0.22u l=0.28u
X95 a_365_n4941# dec_2x4_ibr_mag_0.D2 VSS.t28 VSS.t27 nfet_03v3 ad=0.172p pd=1.18u as=0.29p ps=2.2u w=0.66u l=0.28u
X96 CLK_div_4_mag_0.VDD CLK.t11 CLK_div_4_mag_0.CLK_div_2_mag_0.JK_FF_mag_0.nand3_mag_0.OUT CLK_div_4_mag_0.VDD pfet_03v3 ad=0.208p pd=1.32u as=0.208p ps=1.32u w=0.8u l=0.28u
X97 VDD dec_2x4_ibr_mag_0.and_2_ibr_0.IN1 dec_2x4_ibr_mag_0.and_2_ibr_1.nverterlayout_ibr_0.IN VDD.t55 pfet_03v3 ad=0.352p pd=2.48u as=0.208p ps=1.32u w=0.8u l=0.28u
X98 CLK_div_3_mag_0.JK_FF_mag_1.nand2_mag_4.IN2 CLK_div_3_mag_0.JK_FF_mag_1.nand3_mag_1.OUT dec_2x4_ibr_mag_0.D2 dec_2x4_ibr_mag_0.D2 pfet_03v3 ad=0.208p pd=1.32u as=0.352p ps=2.48u w=0.8u l=0.28u
X99 CLK_div_3_mag_0.or_2_mag_0.GF_INV_MAG_1.IN CLK_div_3_mag_0.or_2_mag_0.IN2 VSS.t158 VSS.t157 nfet_03v3 ad=86.8f pd=0.92u as=0.152p ps=1.64u w=0.22u l=0.28u
X100 CLK_div_4_mag_0.CLK_div_2_mag_0.Vdiv2 CLK_div_4_mag_0.CLK_div_2_mag_0.JK_FF_mag_0.QB a_2348_n6122# VSS.t32 nfet_03v3 ad=0.194p pd=1.76u as=0.114p ps=0.96u w=0.44u l=0.28u
X101 mux_4x1_0.I0 Buffer_delayed_mag_0.Inverter_delayed_mag_0.IN VSS.t119 VSS.t118 nfet_03v3 ad=0.152p pd=1.64u as=0.152p ps=1.64u w=0.22u l=1u
X102 CLK_div_3_mag_0.and2_mag_0.GF_INV_MAG_0.IN CLK_div_3_mag_0.Q1 a_3824_n2701# VSS.t63 nfet_03v3 ad=0.194p pd=1.76u as=0.114p ps=0.96u w=0.44u l=0.28u
X103 mux_4x1_0.I2 CLK_div_3_mag_0.or_2_mag_0.GF_INV_MAG_1.IN VSS.t30 VSS.t29 nfet_03v3 ad=0.152p pd=1.64u as=0.152p ps=1.64u w=0.22u l=0.28u
X104 a_3548_n3844# CLK.t12 a_3388_n3844# VSS.t99 nfet_03v3 ad=0.172p pd=1.18u as=0.172p ps=1.18u w=0.66u l=0.28u
X105 CLK_div_4_mag_0.CLK_div_2_mag_0.JK_FF_mag_0.nand3_mag_2.OUT CLK_div_4_mag_0.CLK_div_2_mag_0.Vdiv2 a_650_n7263# VSS.t85 nfet_03v3 ad=0.29p pd=2.2u as=0.172p ps=1.18u w=0.66u l=0.28u
X106 mux_4x1_0.mux_2x1_2.nand2_2.OUT mux_4x1_0.mux_2x1_2.nverterlayout_0.OUT VDD.t24 VDD.t23 pfet_03v3 ad=0.208p pd=1.32u as=0.352p ps=2.48u w=0.8u l=0.28u
X107 CLK_div_3_mag_0.JK_FF_mag_1.nand2_mag_1.IN2 CLK_div_3_mag_0.JK_FF_mag_1.nand2_mag_3.IN1 a_1659_n3800# VSS.t58 nfet_03v3 ad=0.194p pd=1.76u as=0.114p ps=0.96u w=0.44u l=0.28u
X108 CLK_div_3_mag_0.JK_FF_mag_1.QB CLK_div_3_mag_0.Q1 a_2377_n4897# VSS.t62 nfet_03v3 ad=0.194p pd=1.76u as=0.114p ps=0.96u w=0.44u l=0.28u
X109 CLK_div_3_mag_0.Q0 CLK_div_3_mag_0.JK_FF_mag_0.nand2_mag_1.IN2 dec_2x4_ibr_mag_0.D2 dec_2x4_ibr_mag_0.D2 pfet_03v3 ad=0.208p pd=1.32u as=0.352p ps=2.48u w=0.8u l=0.28u
X110 CLK_div_4_mag_0.CLK_div_2_mag_1.JK_FF_mag_0.nand3_mag_1.IN1 CLK_div_4_mag_0.CLK_div_2_mag_1.JK_FF_mag_0.nand3_mag_1.OUT a_4468_n6121# VSS.t66 nfet_03v3 ad=0.194p pd=1.76u as=0.114p ps=0.96u w=0.44u l=0.28u
X111 dec_2x4_ibr_mag_0.D1 CLK_div_2_mag_0.JK_FF_mag_0.nand2_mag_3.IN1 CLK_div_2_mag_0.JK_FF_mag_0.nand2_mag_4.IN2 dec_2x4_ibr_mag_0.D1 pfet_03v3 ad=0.352p pd=2.48u as=0.208p ps=1.32u w=0.8u l=0.28u
X112 CLK_div_3_mag_0.or_2_mag_0.GF_INV_MAG_1.IN CLK_div_3_mag_0.Q0 a_4797_n2465# dec_2x4_ibr_mag_0.D2 pfet_03v3 ad=0.704p pd=4.08u as=0.416p ps=2.12u w=1.6u l=0.28u
X113 CLK_div_3_mag_0.JK_FF_mag_1.nand3_mag_1.IN1 CLK_div_3_mag_0.JK_FF_mag_1.nand3_mag_1.OUT a_1095_n3800# VSS.t20 nfet_03v3 ad=0.194p pd=1.76u as=0.114p ps=0.96u w=0.44u l=0.28u
X114 a_1374_n7263# RST.t4 a_1214_n7263# VSS.t150 nfet_03v3 ad=0.172p pd=1.18u as=0.172p ps=1.18u w=0.66u l=0.28u
X115 a_4830_n4897# CLK_div_3_mag_0.JK_FF_mag_0.nand3_mag_1.OUT VSS.t39 VSS.t38 nfet_03v3 ad=0.114p pd=0.96u as=0.194p ps=1.76u w=0.44u l=0.28u
X116 a_9668_n1480# mux_4x1_0.mux_2x1_1.nand2_1.IN2 VSS.t205 VSS.t36 nfet_03v3 ad=0.114p pd=0.96u as=0.194p ps=1.76u w=0.44u l=0.28u
X117 CLK_div_4_mag_0.CLK_div_2_mag_1.JK_FF_mag_0.nand3_mag_2.OUT CLK_div_4_mag_0.Vdiv4 CLK_div_4_mag_0.VDD CLK_div_4_mag_0.VDD pfet_03v3 ad=0.352p pd=2.48u as=0.208p ps=1.32u w=0.8u l=0.28u
X118 a_3744_n6165# CLK_div_4_mag_0.VDD VSS.t178 VSS.t177 nfet_03v3 ad=0.172p pd=1.18u as=0.29p ps=2.2u w=0.66u l=0.28u
X119 CLK_div_4_mag_0.CLK_div_2_mag_0.JK_FF_mag_0.nand2_mag_3.IN1 CLK.t13 VSS.t98 VSS.t97 nfet_03v3 ad=0.152p pd=1.64u as=0.152p ps=1.64u w=0.22u l=0.28u
X120 dec_2x4_ibr_mag_0.and_2_ibr_0.IN1 OPA1.t3 VSS.t9 VSS.t8 nfet_03v3 ad=0.152p pd=1.64u as=0.152p ps=1.64u w=0.22u l=0.28u
X121 CLK_div_2_mag_0.JK_FF_mag_0.nand3_mag_1.OUT CLK_div_2_mag_0.JK_FF_mag_0.nand3_mag_1.IN1 dec_2x4_ibr_mag_0.D1 dec_2x4_ibr_mag_0.D1 pfet_03v3 ad=0.352p pd=2.48u as=0.208p ps=1.32u w=0.8u l=0.28u
X122 dec_2x4_ibr_mag_0.D2 CLK_div_3_mag_0.JK_FF_mag_0.nand3_mag_1.OUT CLK_div_3_mag_0.JK_FF_mag_0.nand3_mag_1.IN1 dec_2x4_ibr_mag_0.D2 pfet_03v3 ad=0.352p pd=2.48u as=0.208p ps=1.32u w=0.8u l=0.28u
X123 CLK_div_3_mag_0.JK_FF_mag_1.nand3_mag_2.OUT dec_2x4_ibr_mag_0.D2 dec_2x4_ibr_mag_0.D2 dec_2x4_ibr_mag_0.D2 pfet_03v3 ad=0.208p pd=1.32u as=0.352p ps=2.48u w=0.8u l=0.28u
X124 dec_2x4_ibr_mag_0.and_2_ibr_0.IN2 OPA0.t2 VDD.t66 VDD.t65 pfet_03v3 ad=0.352p pd=2.48u as=0.352p ps=2.48u w=0.8u l=0.28u
X125 VDD mux_4x1_0.mux_2x1_1.nand2_2.OUT Vdiv.t1 VDD.t18 pfet_03v3 ad=0.352p pd=2.48u as=0.208p ps=1.32u w=0.8u l=0.28u
X126 a_1683_n1462# CLK_div_2_mag_0.JK_FF_mag_0.nand3_mag_1.IN1 VSS.t153 VSS.t152 nfet_03v3 ad=0.114p pd=0.96u as=0.194p ps=1.76u w=0.44u l=0.28u
X127 a_496_n6166# CLK_div_4_mag_0.VDD VSS.t176 VSS.t175 nfet_03v3 ad=0.172p pd=1.18u as=0.29p ps=2.2u w=0.66u l=0.28u
X128 dec_2x4_ibr_mag_0.and_2_ibr_0.IN2 OPA0.t3 VSS.t191 VSS.t190 nfet_03v3 ad=0.152p pd=1.64u as=0.152p ps=1.64u w=0.22u l=0.28u
X129 CLK_div_4_mag_0.CLK_div_2_mag_0.JK_FF_mag_0.nand3_mag_2.OUT CLK_div_4_mag_0.CLK_div_2_mag_0.Vdiv2 CLK_div_4_mag_0.VDD CLK_div_4_mag_0.VDD pfet_03v3 ad=0.352p pd=2.48u as=0.208p ps=1.32u w=0.8u l=0.28u
X130 dec_2x4_ibr_mag_0.D2 CLK_div_3_mag_0.JK_FF_mag_0.nand2_mag_3.IN1 CLK_div_3_mag_0.JK_FF_mag_0.nand2_mag_4.IN2 dec_2x4_ibr_mag_0.D2 pfet_03v3 ad=0.352p pd=2.48u as=0.208p ps=1.32u w=0.8u l=0.28u
X131 VDD mux_4x1_0.mux_2x1_2.nand2_2.OUT mux_4x1_0.mux_2x1_2.OUT VDD.t78 pfet_03v3 ad=0.352p pd=2.48u as=0.208p ps=1.32u w=0.8u l=0.28u
X132 CLK_div_4_mag_0.Vdiv4 CLK_div_4_mag_0.CLK_div_2_mag_1.JK_FF_mag_0.QB a_5596_n6121# VSS.t198 nfet_03v3 ad=0.194p pd=1.76u as=0.114p ps=0.96u w=0.44u l=0.28u
X133 CLK_div_4_mag_0.CLK_div_2_mag_0.JK_FF_mag_0.nand2_mag_1.IN2 CLK_div_4_mag_0.CLK_div_2_mag_0.JK_FF_mag_0.nand2_mag_3.IN1 a_1784_n6122# VSS.t79 nfet_03v3 ad=0.194p pd=1.76u as=0.114p ps=0.96u w=0.44u l=0.28u
X134 CLK_div_2_mag_0.JK_FF_mag_0.nand3_mag_0.OUT CLK_div_2_mag_0.JK_FF_mag_0.QB dec_2x4_ibr_mag_0.D1 dec_2x4_ibr_mag_0.D1 pfet_03v3 ad=0.352p pd=2.48u as=0.208p ps=1.32u w=0.8u l=0.28u
X135 CLK_div_2_mag_0.JK_FF_mag_0.nand3_mag_1.IN1 CLK_div_2_mag_0.JK_FF_mag_0.nand3_mag_0.OUT dec_2x4_ibr_mag_0.D1 dec_2x4_ibr_mag_0.D1 pfet_03v3 ad=0.208p pd=1.32u as=0.352p ps=2.48u w=0.8u l=0.28u
X136 CLK_div_3_mag_0.Q1 CLK_div_3_mag_0.JK_FF_mag_1.QB a_2223_n3800# VSS.t202 nfet_03v3 ad=0.194p pd=1.76u as=0.114p ps=0.96u w=0.44u l=0.28u
X137 VDD OPA1.t4 mux_4x1_0.mux_2x1_1.nand2_1.IN2 VDD.t75 pfet_03v3 ad=0.352p pd=2.48u as=0.208p ps=1.32u w=0.8u l=0.28u
X138 CLK_div_4_mag_0.VDD RST.t5 CLK_div_4_mag_0.CLK_div_2_mag_0.JK_FF_mag_0.nand3_mag_1.OUT CLK_div_4_mag_0.VDD pfet_03v3 ad=0.208p pd=1.32u as=0.208p ps=1.32u w=0.8u l=0.28u
X139 CLK_div_4_mag_0.CLK_div_2_mag_1.JK_FF_mag_0.nand2_mag_1.IN2 CLK_div_4_mag_0.CLK_div_2_mag_1.JK_FF_mag_0.nand2_mag_3.IN1 a_5032_n6121# VSS.t140 nfet_03v3 ad=0.194p pd=1.76u as=0.114p ps=0.96u w=0.44u l=0.28u
X140 CLK_div_4_mag_0.CLK_div_2_mag_1.JK_FF_mag_0.nand3_mag_0.OUT CLK_div_4_mag_0.VDD CLK_div_4_mag_0.VDD CLK_div_4_mag_0.VDD pfet_03v3 ad=0.208p pd=1.32u as=0.352p ps=2.48u w=0.8u l=0.28u
X141 dec_2x4_ibr_mag_0.and_2_ibr_2.nverterlayout_ibr_0.IN OPA1.t5 a_5726_n28# VSS.t199 nfet_03v3 ad=0.194p pd=1.76u as=0.114p ps=0.96u w=0.44u l=0.28u
X142 mux_4x1_0.mux_2x1_1.I1 mux_4x1_0.mux_2x1_0.nand2_2.OUT a_8542_n1480# VSS.t87 nfet_03v3 ad=0.194p pd=1.76u as=0.114p ps=0.96u w=0.44u l=0.28u
X143 dec_2x4_ibr_mag_0.D1 mux_4x1_0.I1 CLK_div_2_mag_0.JK_FF_mag_0.QB dec_2x4_ibr_mag_0.D1 pfet_03v3 ad=0.352p pd=2.48u as=0.208p ps=1.32u w=0.8u l=0.28u
X144 dec_2x4_ibr_mag_0.D2 CLK.t14 CLK_div_3_mag_0.JK_FF_mag_0.nand3_mag_0.OUT dec_2x4_ibr_mag_0.D2 pfet_03v3 ad=0.208p pd=1.32u as=0.208p ps=1.32u w=0.8u l=0.28u
X145 CLK_div_4_mag_0.CLK_div_2_mag_0.JK_FF_mag_0.QB CLK_div_4_mag_0.CLK_div_2_mag_0.Vdiv2 a_2502_n7219# VSS.t84 nfet_03v3 ad=0.194p pd=1.76u as=0.114p ps=0.96u w=0.44u l=0.28u
X146 a_5394_n4897# CLK_div_3_mag_0.JK_FF_mag_0.nand2_mag_4.IN2 VSS.t193 VSS.t192 nfet_03v3 ad=0.114p pd=0.96u as=0.194p ps=1.76u w=0.44u l=0.28u
X147 mux_4x1_0.mux_2x1_2.nand2_1.IN2 mux_4x1_0.I1 VDD.t22 VDD.t21 pfet_03v3 ad=0.208p pd=1.32u as=0.352p ps=2.48u w=0.8u l=0.28u
X148 mux_4x1_0.mux_2x1_2.nverterlayout_0.OUT OPA0.t4 VSS.t207 VSS.t206 nfet_03v3 ad=0.152p pd=1.64u as=0.152p ps=1.64u w=0.22u l=0.28u
X149 a_5750_n7218# CLK_div_4_mag_0.CLK_div_2_mag_1.JK_FF_mag_0.nand2_mag_4.IN2 VSS.t75 VSS.t74 nfet_03v3 ad=0.114p pd=0.96u as=0.194p ps=1.76u w=0.44u l=0.28u
X150 mux_4x1_0.I0 Buffer_delayed_mag_0.Inverter_delayed_mag_0.IN dec_2x4_ibr_mag_0.D0 dec_2x4_ibr_mag_0.D0 pfet_03v3 ad=0.352p pd=2.48u as=0.352p ps=2.48u w=0.8u l=1u
X151 a_4760_n28# OPA0.t5 VSS.t209 VSS.t208 nfet_03v3 ad=0.114p pd=0.96u as=0.194p ps=1.76u w=0.44u l=0.28u
X152 CLK_div_2_mag_0.JK_FF_mag_0.nand3_mag_2.OUT mux_4x1_0.I1 a_549_n2603# VSS.t56 nfet_03v3 ad=0.29p pd=2.2u as=0.172p ps=1.18u w=0.66u l=0.28u
X153 CLK_div_4_mag_0.CLK_div_2_mag_0.JK_FF_mag_0.nand3_mag_0.OUT CLK_div_4_mag_0.VDD CLK_div_4_mag_0.VDD CLK_div_4_mag_0.VDD pfet_03v3 ad=0.208p pd=1.32u as=0.352p ps=2.48u w=0.8u l=0.28u
X154 VDD OPA0.t6 mux_4x1_0.mux_2x1_0.nand2_1.IN2 VDD.t48 pfet_03v3 ad=0.352p pd=2.48u as=0.208p ps=1.32u w=0.8u l=0.28u
X155 a_2348_n6122# CLK_div_4_mag_0.CLK_div_2_mag_0.JK_FF_mag_0.nand2_mag_1.IN2 VSS.t16 VSS.t15 nfet_03v3 ad=0.114p pd=0.96u as=0.194p ps=1.76u w=0.44u l=0.28u
X156 dec_2x4_ibr_mag_0.and_2_ibr_3.nverterlayout_ibr_0.IN OPA0.t7 VDD.t52 VDD.t51 pfet_03v3 ad=0.208p pd=1.32u as=0.352p ps=2.48u w=0.8u l=0.28u
X157 CLK_div_2_mag_0.JK_FF_mag_0.nand2_mag_3.IN1 CLK.t15 dec_2x4_ibr_mag_0.D1 dec_2x4_ibr_mag_0.D1 pfet_03v3 ad=0.352p pd=2.48u as=0.352p ps=2.48u w=0.8u l=0.28u
X158 CLK_div_3_mag_0.JK_FF_mag_0.nand2_mag_3.IN1 CLK.t16 VSS.t96 VSS.t95 nfet_03v3 ad=0.152p pd=1.64u as=0.152p ps=1.64u w=0.22u l=0.28u
X159 CLK_div_3_mag_0.JK_FF_mag_1.nand3_mag_2.OUT CLK_div_3_mag_0.Q1 a_525_n4941# VSS.t61 nfet_03v3 ad=0.29p pd=2.2u as=0.172p ps=1.18u w=0.66u l=0.28u
X160 a_1089_n4941# CLK_div_3_mag_0.JK_FF_mag_1.nand3_mag_2.OUT VSS.t196 VSS.t195 nfet_03v3 ad=0.172p pd=1.18u as=0.29p ps=2.2u w=0.66u l=0.28u
X161 CLK_div_4_mag_0.VDD dec_2x4_ibr_mag_0.and_2_ibr_3.nverterlayout_ibr_0.IN VDD.t35 VDD.t34 pfet_03v3 ad=0.352p pd=2.48u as=0.352p ps=2.48u w=0.8u l=0.28u
X162 a_1273_n2603# RST.t6 a_1113_n2603# VSS.t6 nfet_03v3 ad=0.172p pd=1.18u as=0.172p ps=1.18u w=0.66u l=0.28u
X163 a_3824_n2701# CLK.t17 VSS.t94 VSS.t93 nfet_03v3 ad=0.114p pd=0.96u as=0.194p ps=1.76u w=0.44u l=0.28u
X164 a_650_n7263# CLK.t18 a_490_n7263# VSS.t92 nfet_03v3 ad=0.172p pd=1.18u as=0.172p ps=1.18u w=0.66u l=0.28u
X165 CLK_div_4_mag_0.VDD CLK_div_4_mag_0.CLK_div_2_mag_0.JK_FF_mag_0.QB CLK_div_4_mag_0.CLK_div_2_mag_0.Vdiv2 CLK_div_4_mag_0.VDD pfet_03v3 ad=0.352p pd=2.48u as=0.208p ps=1.32u w=0.8u l=0.28u
X166 CLK_div_4_mag_0.CLK_div_2_mag_0.JK_FF_mag_0.nand3_mag_1.IN1 CLK_div_4_mag_0.CLK_div_2_mag_0.JK_FF_mag_0.nand3_mag_1.OUT a_1220_n6122# VSS.t112 nfet_03v3 ad=0.194p pd=1.76u as=0.114p ps=0.96u w=0.44u l=0.28u
X167 a_3382_n4941# dec_2x4_ibr_mag_0.D2 VSS.t26 VSS.t25 nfet_03v3 ad=0.172p pd=1.18u as=0.29p ps=2.2u w=0.66u l=0.28u
X168 CLK_div_2_mag_0.JK_FF_mag_0.nand2_mag_4.IN2 CLK_div_2_mag_0.JK_FF_mag_0.nand3_mag_1.OUT dec_2x4_ibr_mag_0.D1 dec_2x4_ibr_mag_0.D1 pfet_03v3 ad=0.208p pd=1.32u as=0.352p ps=2.48u w=0.8u l=0.28u
X169 a_4797_n2465# CLK_div_3_mag_0.or_2_mag_0.IN2 dec_2x4_ibr_mag_0.D2 dec_2x4_ibr_mag_0.D2 pfet_03v3 ad=0.416p pd=2.12u as=0.704p ps=4.08u w=1.6u l=0.28u
X170 CLK_div_3_mag_0.or_2_mag_0.IN2 CLK_div_3_mag_0.and2_mag_0.GF_INV_MAG_0.IN VSS.t211 VSS.t210 nfet_03v3 ad=0.152p pd=1.64u as=0.152p ps=1.64u w=0.22u l=0.28u
X171 CLK_div_3_mag_0.JK_FF_mag_0.nand2_mag_1.IN2 CLK_div_3_mag_0.JK_FF_mag_0.nand3_mag_1.IN1 dec_2x4_ibr_mag_0.D2 dec_2x4_ibr_mag_0.D2 pfet_03v3 ad=0.208p pd=1.32u as=0.352p ps=2.48u w=0.8u l=0.28u
X172 a_9668_n2080# mux_4x1_0.mux_2x1_1.nverterlayout_0.OUT VSS.t37 VSS.t36 nfet_03v3 ad=0.114p pd=0.96u as=0.194p ps=1.76u w=0.44u l=0.28u
X173 a_1938_n7219# CLK_div_4_mag_0.CLK_div_2_mag_0.JK_FF_mag_0.nand3_mag_1.OUT VSS.t111 VSS.t110 nfet_03v3 ad=0.114p pd=0.96u as=0.194p ps=1.76u w=0.44u l=0.28u
X174 a_1214_n7263# CLK_div_4_mag_0.CLK_div_2_mag_0.JK_FF_mag_0.nand3_mag_2.OUT VSS.t13 VSS.t12 nfet_03v3 ad=0.172p pd=1.18u as=0.29p ps=2.2u w=0.66u l=0.28u
X175 CLK_div_4_mag_0.VDD CLK_div_4_mag_0.CLK_div_2_mag_1.JK_FF_mag_0.nand2_mag_3.IN1 CLK_div_4_mag_0.CLK_div_2_mag_1.JK_FF_mag_0.nand2_mag_4.IN2 CLK_div_4_mag_0.VDD pfet_03v3 ad=0.352p pd=2.48u as=0.208p ps=1.32u w=0.8u l=0.28u
X176 CLK_div_4_mag_0.VDD CLK_div_4_mag_0.CLK_div_2_mag_1.JK_FF_mag_0.nand3_mag_1.OUT CLK_div_4_mag_0.CLK_div_2_mag_1.JK_FF_mag_0.nand3_mag_1.IN1 CLK_div_4_mag_0.VDD pfet_03v3 ad=0.352p pd=2.48u as=0.208p ps=1.32u w=0.8u l=0.28u
X177 CLK_div_3_mag_0.JK_FF_mag_0.nand3_mag_1.IN1 CLK_div_3_mag_0.JK_FF_mag_0.nand3_mag_0.OUT dec_2x4_ibr_mag_0.D2 dec_2x4_ibr_mag_0.D2 pfet_03v3 ad=0.208p pd=1.32u as=0.352p ps=2.48u w=0.8u l=0.28u
X178 a_3898_n7262# CLK_div_4_mag_0.CLK_div_2_mag_0.Vdiv2 a_3738_n7262# VSS.t83 nfet_03v3 ad=0.172p pd=1.18u as=0.172p ps=1.18u w=0.66u l=0.28u
X179 a_5186_n7218# CLK_div_4_mag_0.CLK_div_2_mag_1.JK_FF_mag_0.nand3_mag_1.OUT VSS.t65 VSS.t64 nfet_03v3 ad=0.114p pd=0.96u as=0.194p ps=1.76u w=0.44u l=0.28u
X180 a_7979_n1480# CLK_div_4_mag_0.Vdiv4 VSS.t170 VSS.t169 nfet_03v3 ad=0.114p pd=0.96u as=0.194p ps=1.76u w=0.44u l=0.28u
X181 dec_2x4_ibr_mag_0.D2 CLK_div_3_mag_0.Q1 CLK_div_3_mag_0.and2_mag_0.GF_INV_MAG_0.IN dec_2x4_ibr_mag_0.D2 pfet_03v3 ad=0.352p pd=2.48u as=0.208p ps=1.32u w=0.8u l=0.28u
X182 a_371_n3844# CLK_div_3_mag_0.JK_FF_mag_1.K.t6 VSS.t18 VSS.t17 nfet_03v3 ad=0.172p pd=1.18u as=0.29p ps=2.2u w=0.66u l=0.28u
X183 CLK_div_3_mag_0.JK_FF_mag_1.nand3_mag_2.OUT CLK_div_3_mag_0.Q1 dec_2x4_ibr_mag_0.D2 dec_2x4_ibr_mag_0.D2 pfet_03v3 ad=0.352p pd=2.48u as=0.208p ps=1.32u w=0.8u l=0.28u