* NGSPICE file created from CLK_div_108_new_mag_flat.ext - technology: gf180mcuC

.subckt pex_CLK_div_108_new_mag VSS VDD RST Vdiv108 CLK
X0 VDD JK_FF_mag_1.nand2_mag_3.IN1 JK_FF_mag_1.nand2_mag_1.IN2 VDD.t78 pfet_03v3 ad=0.352p pd=2.48u as=0.208p ps=1.32u w=0.8u l=0.28u
X1 a_11440_215# RST.t0 a_11280_215# VSS.t173 nfet_03v3 ad=0.172p pd=1.18u as=0.172p ps=1.18u w=0.66u l=0.28u
X2 VDD VDD.t171 CLK_div_3_mag_2.JK_FF_mag_0.nand3_mag_2.OUT VDD.t172 pfet_03v3 ad=0.352p pd=2.48u as=0.208p ps=1.32u w=0.8u l=0.28u
X3 a_13857_4607# VDD.t453 VSS.t115 VSS.t114 nfet_03v3 ad=0.172p pd=1.18u as=0.29p ps=2.2u w=0.66u l=0.28u
X4 JK_FF_mag_0.nand2_mag_1.IN2 JK_FF_mag_0.nand2_mag_3.IN1 a_18289_4654# VSS.t65 nfet_03v3 ad=0.194p pd=1.76u as=0.114p ps=0.96u w=0.44u l=0.28u
X5 CLK_div_3_mag_1.JK_FF_mag_0.nand3_mag_1.IN1 CLK_div_3_mag_1.JK_FF_mag_0.nand3_mag_1.OUT VDD.t315 VDD.t314 pfet_03v3 ad=0.208p pd=1.32u as=0.352p ps=2.48u w=0.8u l=0.28u
X6 a_18853_4654# JK_FF_mag_0.nand2_mag_1.IN2 VSS.t239 VSS.t238 nfet_03v3 ad=0.114p pd=0.96u as=0.194p ps=1.76u w=0.44u l=0.28u
X7 JK_FF_mag_1.nand3_mag_0.OUT JK_FF_mag_1.QB a_14017_4607# VSS.t191 nfet_03v3 ad=0.29p pd=2.2u as=0.172p ps=1.18u w=0.66u l=0.28u
X8 CLK_div_3_mag_1.JK_FF_mag_0.nand3_mag_0.OUT CLK_div_3_mag_1.CLK.t2 VDD.t429 VDD.t428 pfet_03v3 ad=0.208p pd=1.32u as=0.208p ps=1.32u w=0.8u l=0.28u
X9 CLK_div_3_mag_1.JK_FF_mag_1.nand3_mag_2.OUT CLK_div_3_mag_1.CLK.t3 VDD.t404 VDD.t403 pfet_03v3 ad=0.208p pd=1.32u as=0.208p ps=1.32u w=0.8u l=0.28u
X10 VDD CLK_div_3_mag_2.JK_FF_mag_1.nand3_mag_0.OUT CLK_div_3_mag_2.JK_FF_mag_1.nand3_mag_1.IN1 VDD.t360 pfet_03v3 ad=0.352p pd=2.48u as=0.208p ps=1.32u w=0.8u l=0.28u
X11 a_17846_214# RST.t1 a_17686_214# VSS.t172 nfet_03v3 ad=0.172p pd=1.18u as=0.172p ps=1.18u w=0.66u l=0.28u
X12 VSS CLK_div_3_mag_1.CLK.t4 CLK_div_3_mag_1.JK_FF_mag_0.nand2_mag_3.IN1 VSS.t254 nfet_03v3 ad=0.152p pd=1.64u as=0.152p ps=1.64u w=0.22u l=0.28u
X13 a_18289_4654# JK_FF_mag_0.nand3_mag_1.IN1 VSS.t251 VSS.t250 nfet_03v3 ad=0.114p pd=0.96u as=0.194p ps=1.76u w=0.44u l=0.28u
X14 CLK_div_3_mag_0.JK_FF_mag_1.nand3_mag_1.IN1 CLK_div_3_mag_0.JK_FF_mag_1.nand3_mag_0.OUT VDD.t61 VDD.t60 pfet_03v3 ad=0.208p pd=1.32u as=0.352p ps=2.48u w=0.8u l=0.28u
X15 JK_FF_mag_1.QB JK_FF_mag_1.Q a_15863_3554# VSS.t269 nfet_03v3 ad=0.194p pd=1.76u as=0.114p ps=0.96u w=0.44u l=0.28u
X16 VDD CLK_div_3_mag_2.JK_FF_mag_1.K.t2 CLK_div_3_mag_2.JK_FF_mag_1.nand3_mag_0.OUT VDD.t107 pfet_03v3 ad=0.352p pd=2.48u as=0.208p ps=1.32u w=0.8u l=0.28u
X17 VSS VDD.t454 a_9147_215# VSS.t111 nfet_03v3 ad=0.29p pd=2.2u as=0.172p ps=1.18u w=0.66u l=0.28u
X18 CLK_div_3_mag_1.JK_FF_mag_1.nand2_mag_4.IN2 CLK_div_3_mag_1.JK_FF_mag_1.nand2_mag_3.IN1 VDD.t329 VDD.t328 pfet_03v3 ad=0.208p pd=1.32u as=0.352p ps=2.48u w=0.8u l=0.28u
X19 VSS CLK.t0 CLK_div_3_mag_2.JK_FF_mag_0.nand2_mag_3.IN1 VSS.t85 nfet_03v3 ad=0.152p pd=1.64u as=0.152p ps=1.64u w=0.22u l=0.28u
X20 CLK_div_3_mag_2.JK_FF_mag_1.nand3_mag_2.OUT CLK.t1 VDD.t132 VDD.t131 pfet_03v3 ad=0.208p pd=1.32u as=0.208p ps=1.32u w=0.8u l=0.28u
X21 CLK_div_3_mag_0.JK_FF_mag_0.nand3_mag_2.OUT CLK_div_3_mag_0.Q0 a_10674_5199# VSS.t120 nfet_03v3 ad=0.29p pd=2.2u as=0.172p ps=1.18u w=0.66u l=0.28u
X22 CLK_div_3_mag_0.JK_FF_mag_0.nand3_mag_2.OUT CLK_div_3_mag_0.Q0 VDD.t180 VDD.t179 pfet_03v3 ad=0.352p pd=2.48u as=0.208p ps=1.32u w=0.8u l=0.28u
X23 CLK_div_3_mag_0.Q1 CLK_div_3_mag_0.JK_FF_mag_1.nand2_mag_1.IN2 VDD.t381 VDD.t380 pfet_03v3 ad=0.208p pd=1.32u as=0.352p ps=2.48u w=0.8u l=0.28u
X24 VDD CLK_div_3_mag_0.Q1 CLK_div_3_mag_0.and2_mag_0.GF_INV_MAG_0.IN VDD.t220 pfet_03v3 ad=0.352p pd=2.48u as=0.208p ps=1.32u w=0.8u l=0.28u
X25 CLK_div_3_mag_0.or_2_mag_0.IN2 CLK_div_3_mag_0.and2_mag_0.GF_INV_MAG_0.IN VDD.t305 VDD.t304 pfet_03v3 ad=0.352p pd=2.48u as=0.352p ps=2.48u w=0.8u l=0.28u
X26 VDD CLK_div_3_mag_2.JK_FF_mag_0.nand3_mag_1.OUT CLK_div_3_mag_2.JK_FF_mag_0.nand2_mag_4.IN2 VDD.t449 pfet_03v3 ad=0.352p pd=2.48u as=0.208p ps=1.32u w=0.8u l=0.28u
X27 JK_FF_mag_0.nand3_mag_1.OUT JK_FF_mag_0.nand3_mag_1.IN1 VDD.t400 VDD.t399 pfet_03v3 ad=0.352p pd=2.48u as=0.208p ps=1.32u w=0.8u l=0.28u
X28 JK_FF_mag_1.nand2_mag_4.IN2 JK_FF_mag_1.nand2_mag_3.IN1 a_15299_3554# VSS.t54 nfet_03v3 ad=0.194p pd=1.76u as=0.114p ps=0.96u w=0.44u l=0.28u
X29 VSS CLK_div_3_mag_1.CLK.t5 a_8705_2455# VSS.t257 nfet_03v3 ad=0.194p pd=1.76u as=0.114p ps=0.96u w=0.44u l=0.28u
X30 a_7699_259# CLK_div_3_mag_1.JK_FF_mag_0.nand2_mag_3.IN1 CLK_div_3_mag_1.JK_FF_mag_0.nand2_mag_4.IN2 VSS.t26 nfet_03v3 ad=0.114p pd=0.96u as=0.194p ps=1.76u w=0.44u l=0.28u
X31 CLK_div_3_mag_0.JK_FF_mag_0.nand3_mag_1.OUT CLK_div_3_mag_0.JK_FF_mag_0.nand3_mag_1.IN1 a_11398_5199# VSS.t21 nfet_03v3 ad=0.29p pd=2.2u as=0.172p ps=1.18u w=0.66u l=0.28u
X32 CLK_div_3_mag_0.JK_FF_mag_0.nand3_mag_1.OUT CLK_div_3_mag_0.JK_FF_mag_0.nand3_mag_1.IN1 VDD.t34 VDD.t33 pfet_03v3 ad=0.352p pd=2.48u as=0.208p ps=1.32u w=0.8u l=0.28u
X33 a_15863_3554# JK_FF_mag_1.nand2_mag_4.IN2 VSS.t43 VSS.t42 nfet_03v3 ad=0.114p pd=0.96u as=0.194p ps=1.76u w=0.44u l=0.28u
X34 CLK_div_3_mag_2.JK_FF_mag_1.nand3_mag_0.OUT CLK.t2 VDD.t229 VDD.t228 pfet_03v3 ad=0.208p pd=1.32u as=0.208p ps=1.32u w=0.8u l=0.28u
X35 a_11962_5199# CLK_div_3_mag_0.JK_FF_mag_0.nand3_mag_1.OUT VSS.t137 VSS.t136 nfet_03v3 ad=0.114p pd=0.96u as=0.194p ps=1.76u w=0.44u l=0.28u
X36 CLK_div_3_mag_0.JK_FF_mag_0.nand2_mag_4.IN2 CLK_div_3_mag_0.JK_FF_mag_0.nand3_mag_1.OUT VDD.t227 VDD.t226 pfet_03v3 ad=0.208p pd=1.32u as=0.352p ps=2.48u w=0.8u l=0.28u
X37 VSS CLK.t3 a_15111_2454# VSS.t138 nfet_03v3 ad=0.194p pd=1.76u as=0.114p ps=0.96u w=0.44u l=0.28u
X38 VSS VDD.t455 a_15553_214# VSS.t108 nfet_03v3 ad=0.29p pd=2.2u as=0.172p ps=1.18u w=0.66u l=0.28u
X39 a_10674_5199# CLK_div_3_mag_0.CLK.t2 a_10514_5199# VSS.t237 nfet_03v3 ad=0.172p pd=1.18u as=0.172p ps=1.18u w=0.66u l=0.28u
X40 VDD CLK_div_3_mag_0.CLK.t3 CLK_div_3_mag_0.JK_FF_mag_0.nand3_mag_2.OUT VDD.t181 pfet_03v3 ad=0.208p pd=1.32u as=0.208p ps=1.32u w=0.8u l=0.28u
X41 a_8227_4102# CLK_div_3_mag_0.JK_FF_mag_1.nand3_mag_0.OUT VSS.t41 VSS.t19 nfet_03v3 ad=0.114p pd=0.96u as=0.194p ps=1.76u w=0.44u l=0.28u
X42 JK_FF_mag_1.nand3_mag_2.OUT VDD.t168 VDD.t170 VDD.t169 pfet_03v3 ad=0.208p pd=1.32u as=0.352p ps=2.48u w=0.8u l=0.28u
X43 a_17122_258# CLK_div_3_mag_2.JK_FF_mag_1.nand2_mag_3.IN1 CLK_div_3_mag_2.JK_FF_mag_1.nand2_mag_4.IN2 VSS.t178 nfet_03v3 ad=0.114p pd=0.96u as=0.194p ps=1.76u w=0.44u l=0.28u
X44 VDD CLK_div_3_mag_1.JK_FF_mag_1.nand3_mag_1.IN1 CLK_div_3_mag_1.JK_FF_mag_1.nand2_mag_1.IN2 VDD.t251 pfet_03v3 ad=0.352p pd=2.48u as=0.208p ps=1.32u w=0.8u l=0.28u
X45 VDD CLK_div_3_mag_2.JK_FF_mag_0.nand2_mag_1.IN2 CLK_div_3_mag_2.Q0.t0 VDD.t377 pfet_03v3 ad=0.352p pd=2.48u as=0.208p ps=1.32u w=0.8u l=0.28u
X46 VDD RST.t2 JK_FF_mag_0.nand3_mag_1.OUT VDD.t254 pfet_03v3 ad=0.208p pd=1.32u as=0.208p ps=1.32u w=0.8u l=0.28u
X47 VSS CLK_div_3_mag_2.and2_mag_0.GF_INV_MAG_0.IN CLK_div_3_mag_2.or_2_mag_0.IN2 VSS.t145 nfet_03v3 ad=0.152p pd=1.64u as=0.152p ps=1.64u w=0.22u l=0.28u
X48 a_9141_1312# CLK_div_3_mag_1.CLK.t6 a_8981_1312# VSS.t260 nfet_03v3 ad=0.172p pd=1.18u as=0.172p ps=1.18u w=0.66u l=0.28u
X49 a_12164_215# CLK_div_3_mag_1.CLK.t7 a_12004_215# VSS.t261 nfet_03v3 ad=0.172p pd=1.18u as=0.172p ps=1.18u w=0.66u l=0.28u
X50 a_9355_4102# CLK_div_3_mag_0.JK_FF_mag_1.nand2_mag_1.IN2 VSS.t233 VSS.t19 nfet_03v3 ad=0.114p pd=0.96u as=0.194p ps=1.76u w=0.44u l=0.28u
X51 CLK_div_3_mag_0.and2_mag_0.GF_INV_MAG_0.IN CLK_div_3_mag_0.Q1 a_10956_3003# VSS.t81 nfet_03v3 ad=0.194p pd=1.76u as=0.114p ps=0.96u w=0.44u l=0.28u
X52 JK_FF_mag_0.nand3_mag_2.OUT VDD.t165 VDD.t167 VDD.t166 pfet_03v3 ad=0.208p pd=1.32u as=0.352p ps=2.48u w=0.8u l=0.28u
X53 VDD JK_FF_mag_0.nand2_mag_3.IN1 JK_FF_mag_0.nand2_mag_4.IN2 VDD.t101 pfet_03v3 ad=0.352p pd=2.48u as=0.208p ps=1.32u w=0.8u l=0.28u
X54 CLK_div_3_mag_0.or_2_mag_0.IN2 CLK_div_3_mag_0.and2_mag_0.GF_INV_MAG_0.IN VSS.t189 VSS.t188 nfet_03v3 ad=0.152p pd=1.64u as=0.152p ps=1.64u w=0.22u l=0.28u
X55 VDD CLK_div_3_mag_2.JK_FF_mag_0.nand3_mag_0.OUT CLK_div_3_mag_2.JK_FF_mag_0.nand3_mag_1.IN1 VDD.t35 pfet_03v3 ad=0.352p pd=2.48u as=0.208p ps=1.32u w=0.8u l=0.28u
X56 VDD CLK_div_3_mag_1.JK_FF_mag_0.nand3_mag_2.OUT CLK_div_3_mag_1.JK_FF_mag_0.nand3_mag_1.OUT VDD.t195 pfet_03v3 ad=0.352p pd=2.48u as=0.208p ps=1.32u w=0.8u l=0.28u
X57 JK_FF_mag_1.nand2_mag_4.IN2 JK_FF_mag_1.nand3_mag_1.OUT VDD.t204 VDD.t203 pfet_03v3 ad=0.208p pd=1.32u as=0.352p ps=2.48u w=0.8u l=0.28u
X58 VDD CLK_div_3_mag_1.and2_mag_0.GF_INV_MAG_0.IN CLK_div_3_mag_1.or_2_mag_0.IN2 VDD.t371 pfet_03v3 ad=0.352p pd=2.48u as=0.352p ps=2.48u w=0.8u l=0.28u
X59 CLK_div_3_mag_1.and2_mag_0.GF_INV_MAG_0.IN CLK_div_3_mag_1.Q1.t3 VDD.t82 VDD.t81 pfet_03v3 ad=0.208p pd=1.32u as=0.352p ps=2.48u w=0.8u l=0.28u
X60 VDD CLK_div_3_mag_1.JK_FF_mag_1.nand2_mag_1.IN2 CLK_div_3_mag_1.Q1.t0 VDD.t104 pfet_03v3 ad=0.352p pd=2.48u as=0.208p ps=1.32u w=0.8u l=0.28u
X61 CLK_div_3_mag_2.Q0 CLK_div_3_mag_2.JK_FF_mag_1.K.t3 VDD.t111 VDD.t110 pfet_03v3 ad=0.208p pd=1.32u as=0.352p ps=2.48u w=0.8u l=0.28u
X62 VDD CLK_div_3_mag_2.JK_FF_mag_0.nand3_mag_2.OUT CLK_div_3_mag_2.JK_FF_mag_0.nand3_mag_1.OUT VDD.t290 pfet_03v3 ad=0.352p pd=2.48u as=0.208p ps=1.32u w=0.8u l=0.28u
X63 VSS CLK_div_3_mag_2.JK_FF_mag_1.K.t4 a_18564_1311# VSS.t69 nfet_03v3 ad=0.29p pd=2.2u as=0.172p ps=1.18u w=0.66u l=0.28u
X64 JK_FF_mag_0.nand3_mag_2.OUT Vdiv108.t3 VDD.t317 VDD.t316 pfet_03v3 ad=0.352p pd=2.48u as=0.208p ps=1.32u w=0.8u l=0.28u
X65 CLK_div_3_mag_0.JK_FF_mag_0.nand3_mag_0.OUT CLK_div_3_mag_0.JK_FF_mag_1.K.t3 VDD.t325 VDD.t324 pfet_03v3 ad=0.352p pd=2.48u as=0.208p ps=1.32u w=0.8u l=0.28u
X66 VDD CLK_div_3_mag_1.or_2_mag_0.GF_INV_MAG_1.IN CLK_div_3_mag_0.CLK.t0 VDD.t441 pfet_03v3 ad=0.352p pd=2.48u as=0.352p ps=2.48u w=0.8u l=0.28u
X67 CLK_div_3_mag_1.JK_FF_mag_1.nand2_mag_1.IN2 CLK_div_3_mag_1.JK_FF_mag_1.nand2_mag_3.IN1 VDD.t327 VDD.t326 pfet_03v3 ad=0.208p pd=1.32u as=0.352p ps=2.48u w=0.8u l=0.28u
X68 a_18570_214# CLK.t4 a_18410_214# VSS.t141 nfet_03v3 ad=0.172p pd=1.18u as=0.172p ps=1.18u w=0.66u l=0.28u
X69 CLK_div_3_mag_1.JK_FF_mag_1.QB CLK_div_3_mag_1.Q1.t4 VDD.t84 VDD.t83 pfet_03v3 ad=0.208p pd=1.32u as=0.352p ps=2.48u w=0.8u l=0.28u
X70 a_7732_2691# CLK_div_3_mag_1.Q0.t3 CLK_div_3_mag_1.or_2_mag_0.GF_INV_MAG_1.IN VDD.t432 pfet_03v3 ad=0.416p pd=2.12u as=0.704p ps=4.08u w=1.6u l=0.28u
X71 CLK_div_3_mag_2.and2_mag_0.GF_INV_MAG_0.IN CLK_div_3_mag_2.Q1.t3 VDD.t116 VDD.t115 pfet_03v3 ad=0.208p pd=1.32u as=0.352p ps=2.48u w=0.8u l=0.28u
X72 VDD CLK_div_3_mag_1.JK_FF_mag_1.nand3_mag_0.OUT CLK_div_3_mag_1.JK_FF_mag_1.nand3_mag_1.IN1 VDD.t0 pfet_03v3 ad=0.352p pd=2.48u as=0.208p ps=1.32u w=0.8u l=0.28u
X73 JK_FF_mag_0.nand3_mag_1.OUT JK_FF_mag_0.nand3_mag_1.IN1 a_17879_3513# VSS.t249 nfet_03v3 ad=0.29p pd=2.2u as=0.172p ps=1.18u w=0.66u l=0.28u
X74 a_14138_2690# CLK_div_3_mag_2.Q0.t3 CLK_div_3_mag_2.or_2_mag_0.GF_INV_MAG_1.IN VDD.t348 pfet_03v3 ad=0.416p pd=2.12u as=0.704p ps=4.08u w=1.6u l=0.28u
X75 a_7135_259# CLK_div_3_mag_1.Q0.t4 CLK_div_3_mag_1.JK_FF_mag_1.K VSS.t272 nfet_03v3 ad=0.114p pd=0.96u as=0.194p ps=1.76u w=0.44u l=0.28u
X76 VDD CLK_div_3_mag_0.JK_FF_mag_0.nand2_mag_3.IN1 CLK_div_3_mag_0.JK_FF_mag_0.nand2_mag_1.IN2 VDD.t88 pfet_03v3 ad=0.352p pd=2.48u as=0.208p ps=1.32u w=0.8u l=0.28u
X77 a_13541_258# CLK_div_3_mag_2.Q0.t4 CLK_div_3_mag_2.JK_FF_mag_1.K VSS.t213 nfet_03v3 ad=0.114p pd=0.96u as=0.194p ps=1.76u w=0.44u l=0.28u
X78 a_18564_1311# CLK.t5 a_18404_1311# VSS.t142 nfet_03v3 ad=0.172p pd=1.18u as=0.172p ps=1.18u w=0.66u l=0.28u
X79 VDD CLK_div_3_mag_0.CLK.t4 CLK_div_3_mag_0.JK_FF_mag_0.nand3_mag_0.OUT VDD.t184 pfet_03v3 ad=0.208p pd=1.32u as=0.208p ps=1.32u w=0.8u l=0.28u
X80 VDD VDD.t161 CLK_div_3_mag_1.JK_FF_mag_1.nand3_mag_2.OUT VDD.t162 pfet_03v3 ad=0.352p pd=2.48u as=0.208p ps=1.32u w=0.8u l=0.28u
X81 a_13851_3510# VDD.t457 VSS.t107 VSS.t106 nfet_03v3 ad=0.172p pd=1.18u as=0.29p ps=2.2u w=0.66u l=0.28u
X82 VDD CLK_div_3_mag_0.JK_FF_mag_0.nand3_mag_1.OUT CLK_div_3_mag_0.JK_FF_mag_0.nand3_mag_1.IN1 VDD.t223 pfet_03v3 ad=0.352p pd=2.48u as=0.208p ps=1.32u w=0.8u l=0.28u
X83 CLK_div_3_mag_0.JK_FF_mag_0.nand3_mag_0.OUT CLK_div_3_mag_0.JK_FF_mag_1.K.t4 a_10680_4102# VSS.t91 nfet_03v3 ad=0.29p pd=2.2u as=0.172p ps=1.18u w=0.66u l=0.28u
X84 a_17879_3513# RST.t3 a_17719_3513# VSS.t171 nfet_03v3 ad=0.172p pd=1.18u as=0.172p ps=1.18u w=0.66u l=0.28u
X85 VSS CLK_div_3_mag_1.or_2_mag_0.GF_INV_MAG_1.IN CLK_div_3_mag_0.CLK.t1 VSS.t281 nfet_03v3 ad=0.152p pd=1.64u as=0.152p ps=1.64u w=0.22u l=0.28u
X86 VDD VDD.t157 CLK_div_3_mag_2.JK_FF_mag_1.nand3_mag_2.OUT VDD.t158 pfet_03v3 ad=0.352p pd=2.48u as=0.208p ps=1.32u w=0.8u l=0.28u
X87 a_16995_3513# VDD.t459 VSS.t105 VSS.t104 nfet_03v3 ad=0.172p pd=1.18u as=0.29p ps=2.2u w=0.66u l=0.28u
X88 VSS CLK_div_3_mag_1.JK_FF_mag_0.nand3_mag_2.OUT a_8423_215# VSS.t123 nfet_03v3 ad=0.29p pd=2.2u as=0.172p ps=1.18u w=0.66u l=0.28u
X89 CLK_div_3_mag_0.JK_FF_mag_0.nand2_mag_1.IN2 CLK_div_3_mag_0.JK_FF_mag_0.nand2_mag_3.IN1 a_11808_4102# VSS.t19 nfet_03v3 ad=0.194p pd=1.76u as=0.114p ps=0.96u w=0.44u l=0.28u
X90 a_8417_1356# CLK_div_3_mag_1.JK_FF_mag_0.nand3_mag_1.OUT CLK_div_3_mag_1.JK_FF_mag_0.nand3_mag_1.IN1 VSS.t195 nfet_03v3 ad=0.114p pd=0.96u as=0.194p ps=1.76u w=0.44u l=0.28u
X91 VSS CLK_div_3_mag_2.JK_FF_mag_0.nand3_mag_2.OUT a_14829_214# VSS.t179 nfet_03v3 ad=0.29p pd=2.2u as=0.172p ps=1.18u w=0.66u l=0.28u
X92 JK_FF_mag_0.nand3_mag_2.OUT Vdiv108.t4 a_17155_3513# VSS.t199 nfet_03v3 ad=0.29p pd=2.2u as=0.172p ps=1.18u w=0.66u l=0.28u
X93 a_10680_4102# CLK_div_3_mag_0.CLK.t5 a_10520_4102# VSS.t91 nfet_03v3 ad=0.172p pd=1.18u as=0.172p ps=1.18u w=0.66u l=0.28u
X94 JK_FF_mag_1.Q JK_FF_mag_1.nand2_mag_1.IN2 VDD.t431 VDD.t430 pfet_03v3 ad=0.208p pd=1.32u as=0.352p ps=2.48u w=0.8u l=0.28u
X95 VSS CLK_div_3_mag_2.JK_FF_mag_1.nand3_mag_0.OUT a_17840_1355# VSS.t219 nfet_03v3 ad=0.194p pd=1.76u as=0.114p ps=0.96u w=0.44u l=0.28u
X96 CLK_div_3_mag_0.JK_FF_mag_0.nand3_mag_1.IN1 CLK_div_3_mag_0.JK_FF_mag_0.nand3_mag_1.OUT a_11244_4102# VSS.t19 nfet_03v3 ad=0.194p pd=1.76u as=0.114p ps=0.96u w=0.44u l=0.28u
X97 a_16712_1355# CLK_div_3_mag_2.JK_FF_mag_1.QB CLK_div_3_mag_2.Q1.t1 VSS.t16 nfet_03v3 ad=0.114p pd=0.96u as=0.194p ps=1.76u w=0.44u l=0.28u
X98 VDD JK_FF_mag_0.nand3_mag_1.OUT JK_FF_mag_0.nand3_mag_1.IN1 VDD.t49 pfet_03v3 ad=0.352p pd=2.48u as=0.208p ps=1.32u w=0.8u l=0.28u
X99 a_10716_259# CLK_div_3_mag_1.JK_FF_mag_1.nand2_mag_3.IN1 CLK_div_3_mag_1.JK_FF_mag_1.nand2_mag_4.IN2 VSS.t198 nfet_03v3 ad=0.114p pd=0.96u as=0.194p ps=1.76u w=0.44u l=0.28u
X100 VDD CLK_div_3_mag_1.JK_FF_mag_0.nand3_mag_1.OUT CLK_div_3_mag_1.JK_FF_mag_0.nand2_mag_4.IN2 VDD.t311 pfet_03v3 ad=0.352p pd=2.48u as=0.208p ps=1.32u w=0.8u l=0.28u
X101 VSS VDD.t460 a_12164_215# VSS.t101 nfet_03v3 ad=0.29p pd=2.2u as=0.172p ps=1.18u w=0.66u l=0.28u
X102 JK_FF_mag_1.nand2_mag_1.IN2 JK_FF_mag_1.nand3_mag_1.IN1 VDD.t393 VDD.t392 pfet_03v3 ad=0.208p pd=1.32u as=0.352p ps=2.48u w=0.8u l=0.28u
X103 JK_FF_mag_1.CLK CLK_div_3_mag_0.or_2_mag_0.GF_INV_MAG_1.IN VDD.t402 VDD.t401 pfet_03v3 ad=0.352p pd=2.48u as=0.352p ps=2.48u w=0.8u l=0.28u
X104 VSS CLK_div_3_mag_2.JK_FF_mag_0.nand3_mag_1.OUT a_14105_258# VSS.t288 nfet_03v3 ad=0.194p pd=1.76u as=0.114p ps=0.96u w=0.44u l=0.28u
X105 VDD CLK_div_3_mag_2.JK_FF_mag_1.nand3_mag_1.OUT CLK_div_3_mag_2.JK_FF_mag_1.nand2_mag_4.IN2 VDD.t93 pfet_03v3 ad=0.352p pd=2.48u as=0.208p ps=1.32u w=0.8u l=0.28u
X106 VDD CLK_div_3_mag_2.JK_FF_mag_1.nand3_mag_1.IN1 CLK_div_3_mag_2.JK_FF_mag_1.nand2_mag_1.IN2 VDD.t70 pfet_03v3 ad=0.352p pd=2.48u as=0.208p ps=1.32u w=0.8u l=0.28u
X107 VSS VDD.t461 a_18570_214# VSS.t98 nfet_03v3 ad=0.29p pd=2.2u as=0.172p ps=1.18u w=0.66u l=0.28u
X108 CLK_div_3_mag_2.JK_FF_mag_1.nand3_mag_1.IN1 CLK_div_3_mag_2.JK_FF_mag_1.nand3_mag_1.OUT VDD.t92 VDD.t91 pfet_03v3 ad=0.208p pd=1.32u as=0.352p ps=2.48u w=0.8u l=0.28u
X109 VSS CLK_div_3_mag_2.JK_FF_mag_0.nand2_mag_1.IN2 a_13695_1355# VSS.t230 nfet_03v3 ad=0.194p pd=1.76u as=0.114p ps=0.96u w=0.44u l=0.28u
X110 VDD CLK_div_3_mag_1.JK_FF_mag_1.nand3_mag_2.OUT CLK_div_3_mag_1.JK_FF_mag_1.nand3_mag_1.OUT VDD.t345 pfet_03v3 ad=0.352p pd=2.48u as=0.208p ps=1.32u w=0.8u l=0.28u
X111 VSS CLK_div_3_mag_1.JK_FF_mag_1.nand3_mag_1.IN1 a_10870_1356# VSS.t150 nfet_03v3 ad=0.194p pd=1.76u as=0.114p ps=0.96u w=0.44u l=0.28u
X112 CLK_div_3_mag_2.JK_FF_mag_1.nand2_mag_1.IN2 CLK_div_3_mag_2.JK_FF_mag_1.nand2_mag_3.IN1 VDD.t289 VDD.t288 pfet_03v3 ad=0.208p pd=1.32u as=0.352p ps=2.48u w=0.8u l=0.28u
X113 JK_FF_mag_0.nand2_mag_4.IN2 JK_FF_mag_0.nand2_mag_3.IN1 a_18443_3557# VSS.t64 nfet_03v3 ad=0.194p pd=1.76u as=0.114p ps=0.96u w=0.44u l=0.28u
X114 VSS CLK_div_3_mag_2.JK_FF_mag_0.nand3_mag_0.OUT a_14823_1355# VSS.t22 nfet_03v3 ad=0.194p pd=1.76u as=0.114p ps=0.96u w=0.44u l=0.28u
X115 CLK_div_3_mag_0.JK_FF_mag_1.K CLK_div_3_mag_0.Q0 a_12526_5199# VSS.t119 nfet_03v3 ad=0.194p pd=1.76u as=0.114p ps=0.96u w=0.44u l=0.28u
X116 VDD CLK_div_3_mag_0.Q0 CLK_div_3_mag_0.JK_FF_mag_1.K.t0 VDD.t176 pfet_03v3 ad=0.352p pd=2.48u as=0.208p ps=1.32u w=0.8u l=0.28u
X117 a_15299_3554# JK_FF_mag_1.nand3_mag_1.OUT VSS.t127 VSS.t54 nfet_03v3 ad=0.114p pd=0.96u as=0.194p ps=1.76u w=0.44u l=0.28u
X118 a_8705_2455# CLK_div_3_mag_1.Q1.t5 CLK_div_3_mag_1.and2_mag_0.GF_INV_MAG_0.IN VSS.t55 nfet_03v3 ad=0.114p pd=0.96u as=0.194p ps=1.76u w=0.44u l=0.28u
X119 VSS CLK_div_3_mag_1.JK_FF_mag_1.nand2_mag_1.IN2 a_10306_1356# VSS.t66 nfet_03v3 ad=0.194p pd=1.76u as=0.114p ps=0.96u w=0.44u l=0.28u
X120 a_13695_1355# CLK_div_3_mag_2.JK_FF_mag_1.K.t5 CLK_div_3_mag_2.Q0.t2 VSS.t72 nfet_03v3 ad=0.114p pd=0.96u as=0.194p ps=1.76u w=0.44u l=0.28u
X121 a_10152_259# CLK_div_3_mag_1.Q1.t6 CLK_div_3_mag_1.JK_FF_mag_1.QB VSS.t56 nfet_03v3 ad=0.114p pd=0.96u as=0.194p ps=1.76u w=0.44u l=0.28u
X122 VDD CLK_div_3_mag_2.JK_FF_mag_1.nand3_mag_2.OUT CLK_div_3_mag_2.JK_FF_mag_1.nand3_mag_1.OUT VDD.t205 pfet_03v3 ad=0.352p pd=2.48u as=0.208p ps=1.32u w=0.8u l=0.28u
X123 a_11398_5199# RST.t4 a_11238_5199# VSS.t170 nfet_03v3 ad=0.172p pd=1.18u as=0.172p ps=1.18u w=0.66u l=0.28u
X124 VDD RST.t5 CLK_div_3_mag_0.JK_FF_mag_0.nand3_mag_1.OUT VDD.t366 pfet_03v3 ad=0.208p pd=1.32u as=0.208p ps=1.32u w=0.8u l=0.28u
X125 VDD CLK_div_3_mag_2.JK_FF_mag_1.QB CLK_div_3_mag_2.JK_FF_mag_1.nand3_mag_0.OUT VDD.t24 pfet_03v3 ad=0.208p pd=1.32u as=0.352p ps=2.48u w=0.8u l=0.28u
X126 a_10870_1356# CLK_div_3_mag_1.JK_FF_mag_1.nand2_mag_3.IN1 CLK_div_3_mag_1.JK_FF_mag_1.nand2_mag_1.IN2 VSS.t197 nfet_03v3 ad=0.114p pd=0.96u as=0.194p ps=1.76u w=0.44u l=0.28u
X127 VDD CLK_div_3_mag_1.JK_FF_mag_0.nand2_mag_4.IN2 CLK_div_3_mag_1.JK_FF_mag_1.K.t0 VDD.t387 pfet_03v3 ad=0.352p pd=2.48u as=0.208p ps=1.32u w=0.8u l=0.28u
X128 a_15111_2454# CLK_div_3_mag_2.Q1.t4 CLK_div_3_mag_2.and2_mag_0.GF_INV_MAG_0.IN VSS.t74 nfet_03v3 ad=0.114p pd=0.96u as=0.194p ps=1.76u w=0.44u l=0.28u
X129 VDD CLK_div_3_mag_2.JK_FF_mag_0.nand2_mag_4.IN2 CLK_div_3_mag_2.JK_FF_mag_1.K.t1 VDD.t374 pfet_03v3 ad=0.352p pd=2.48u as=0.208p ps=1.32u w=0.8u l=0.28u
X130 a_10514_5199# VDD.t462 VSS.t97 VSS.t96 nfet_03v3 ad=0.172p pd=1.18u as=0.29p ps=2.2u w=0.66u l=0.28u
X131 CLK_div_3_mag_0.JK_FF_mag_0.nand2_mag_4.IN2 CLK_div_3_mag_0.JK_FF_mag_0.nand2_mag_3.IN1 a_11962_5199# VSS.t57 nfet_03v3 ad=0.194p pd=1.76u as=0.114p ps=0.96u w=0.44u l=0.28u
X132 CLK_div_3_mag_0.JK_FF_mag_0.nand3_mag_2.OUT VDD.t154 VDD.t156 VDD.t155 pfet_03v3 ad=0.208p pd=1.32u as=0.352p ps=2.48u w=0.8u l=0.28u
X133 VDD CLK_div_3_mag_0.JK_FF_mag_0.nand2_mag_3.IN1 CLK_div_3_mag_0.JK_FF_mag_0.nand2_mag_4.IN2 VDD.t85 pfet_03v3 ad=0.352p pd=2.48u as=0.208p ps=1.32u w=0.8u l=0.28u
X134 a_11929_2535# CLK_div_3_mag_0.or_2_mag_0.IN2 VDD.t338 VDD.t337 pfet_03v3 ad=0.416p pd=2.12u as=0.704p ps=4.08u w=1.6u l=0.28u
X135 VSS CLK_div_3_mag_1.JK_FF_mag_1.nand3_mag_0.OUT a_11434_1356# VSS.t0 nfet_03v3 ad=0.194p pd=1.76u as=0.114p ps=0.96u w=0.44u l=0.28u
X136 JK_FF_mag_0.QB JK_FF_mag_0.nand2_mag_4.IN2 VDD.t97 VDD.t96 pfet_03v3 ad=0.208p pd=1.32u as=0.352p ps=2.48u w=0.8u l=0.28u
X137 JK_FF_mag_0.nand3_mag_1.OUT JK_FF_mag_0.nand3_mag_2.OUT VDD.t126 VDD.t125 pfet_03v3 ad=0.208p pd=1.32u as=0.352p ps=2.48u w=0.8u l=0.28u
X138 VDD CLK_div_3_mag_1.JK_FF_mag_0.nand3_mag_1.IN1 CLK_div_3_mag_1.JK_FF_mag_0.nand2_mag_1.IN2 VDD.t275 pfet_03v3 ad=0.352p pd=2.48u as=0.208p ps=1.32u w=0.8u l=0.28u
X139 VDD CLK_div_3_mag_2.Q0.t5 CLK_div_3_mag_2.JK_FF_mag_0.nand3_mag_2.OUT VDD.t353 pfet_03v3 ad=0.208p pd=1.32u as=0.352p ps=2.48u w=0.8u l=0.28u
X140 JK_FF_mag_1.nand3_mag_1.IN1 JK_FF_mag_1.nand3_mag_1.OUT a_14581_4651# VSS.t126 nfet_03v3 ad=0.194p pd=1.76u as=0.114p ps=0.96u w=0.44u l=0.28u
X141 JK_FF_mag_1.CLK CLK_div_3_mag_0.or_2_mag_0.GF_INV_MAG_1.IN VSS.t253 VSS.t252 nfet_03v3 ad=0.152p pd=1.64u as=0.152p ps=1.64u w=0.22u l=0.28u
X142 VDD CLK_div_3_mag_2.Q1.t5 CLK_div_3_mag_2.JK_FF_mag_0.nand3_mag_0.OUT VDD.t117 pfet_03v3 ad=0.352p pd=2.48u as=0.208p ps=1.32u w=0.8u l=0.28u
X143 JK_FF_mag_0.nand2_mag_4.IN2 JK_FF_mag_0.nand3_mag_1.OUT VDD.t48 VDD.t47 pfet_03v3 ad=0.208p pd=1.32u as=0.352p ps=2.48u w=0.8u l=0.28u
X144 VDD CLK_div_3_mag_2.JK_FF_mag_0.nand3_mag_1.IN1 CLK_div_3_mag_2.JK_FF_mag_0.nand2_mag_1.IN2 VDD.t6 pfet_03v3 ad=0.352p pd=2.48u as=0.208p ps=1.32u w=0.8u l=0.28u
X145 CLK_div_3_mag_2.JK_FF_mag_0.nand3_mag_1.IN1 CLK_div_3_mag_2.JK_FF_mag_0.nand3_mag_1.OUT VDD.t448 VDD.t447 pfet_03v3 ad=0.208p pd=1.32u as=0.352p ps=2.48u w=0.8u l=0.28u
X146 VSS CLK_div_3_mag_1.JK_FF_mag_1.nand3_mag_2.OUT a_11440_215# VSS.t210 nfet_03v3 ad=0.29p pd=2.2u as=0.172p ps=1.18u w=0.66u l=0.28u
X147 VDD CLK_div_3_mag_1.JK_FF_mag_1.QB CLK_div_3_mag_1.JK_FF_mag_1.nand3_mag_0.OUT VDD.t208 pfet_03v3 ad=0.208p pd=1.32u as=0.352p ps=2.48u w=0.8u l=0.28u
X148 VDD JK_FF_mag_1.Q JK_FF_mag_0.nand3_mag_2.OUT VDD.t425 pfet_03v3 ad=0.208p pd=1.32u as=0.208p ps=1.32u w=0.8u l=0.28u
X149 CLK_div_3_mag_0.JK_FF_mag_1.nand3_mag_0.OUT CLK_div_3_mag_0.JK_FF_mag_1.QB VDD.t140 VDD.t139 pfet_03v3 ad=0.352p pd=2.48u as=0.208p ps=1.32u w=0.8u l=0.28u
X150 VDD CLK_div_3_mag_1.JK_FF_mag_1.K.t2 CLK_div_3_mag_1.JK_FF_mag_1.nand3_mag_0.OUT VDD.t44 pfet_03v3 ad=0.352p pd=2.48u as=0.208p ps=1.32u w=0.8u l=0.28u
X151 CLK_div_3_mag_2.JK_FF_mag_1.QB CLK_div_3_mag_2.Q1.t6 VDD.t121 VDD.t120 pfet_03v3 ad=0.208p pd=1.32u as=0.352p ps=2.48u w=0.8u l=0.28u
X152 JK_FF_mag_1.Q JK_FF_mag_1.QB a_15709_4651# VSS.t190 nfet_03v3 ad=0.194p pd=1.76u as=0.114p ps=0.96u w=0.44u l=0.28u
X153 JK_FF_mag_0.nand3_mag_1.IN1 JK_FF_mag_0.nand3_mag_1.OUT a_17725_4654# VSS.t33 nfet_03v3 ad=0.194p pd=1.76u as=0.114p ps=0.96u w=0.44u l=0.28u
X154 VDD Vdiv108.t5 JK_FF_mag_0.QB VDD.t330 pfet_03v3 ad=0.352p pd=2.48u as=0.208p ps=1.32u w=0.8u l=0.28u
X155 VSS CLK_div_3_mag_1.and2_mag_0.GF_INV_MAG_0.IN CLK_div_3_mag_1.or_2_mag_0.IN2 VSS.t224 nfet_03v3 ad=0.152p pd=1.64u as=0.152p ps=1.64u w=0.22u l=0.28u
X156 CLK_div_3_mag_0.or_2_mag_0.GF_INV_MAG_1.IN CLK_div_3_mag_0.Q0 a_11929_2535# VDD.t175 pfet_03v3 ad=0.704p pd=4.08u as=0.416p ps=2.12u w=1.6u l=0.28u
X157 VDD CLK_div_3_mag_1.CLK.t8 CLK_div_3_mag_1.JK_FF_mag_1.nand2_mag_3.IN1 VDD.t405 pfet_03v3 ad=0.352p pd=2.48u as=0.352p ps=2.48u w=0.8u l=0.28u
X158 a_14581_4651# JK_FF_mag_1.nand3_mag_0.OUT VSS.t52 VSS.t51 nfet_03v3 ad=0.114p pd=0.96u as=0.194p ps=1.76u w=0.44u l=0.28u
X159 CLK_div_3_mag_1.JK_FF_mag_1.nand3_mag_1.IN1 CLK_div_3_mag_1.JK_FF_mag_1.nand3_mag_1.OUT VDD.t56 VDD.t55 pfet_03v3 ad=0.208p pd=1.32u as=0.352p ps=2.48u w=0.8u l=0.28u
X160 CLK_div_3_mag_2.JK_FF_mag_0.nand2_mag_1.IN2 CLK_div_3_mag_2.JK_FF_mag_0.nand2_mag_3.IN1 VDD.t342 VDD.t341 pfet_03v3 ad=0.208p pd=1.32u as=0.352p ps=2.48u w=0.8u l=0.28u
X161 VSS CLK_div_3_mag_2.JK_FF_mag_1.nand3_mag_2.OUT a_17846_214# VSS.t128 nfet_03v3 ad=0.29p pd=2.2u as=0.172p ps=1.18u w=0.66u l=0.28u
X162 JK_FF_mag_1.nand2_mag_1.IN2 JK_FF_mag_1.nand2_mag_3.IN1 a_15145_4651# VSS.t53 nfet_03v3 ad=0.194p pd=1.76u as=0.114p ps=0.96u w=0.44u l=0.28u
X163 CLK_div_3_mag_0.JK_FF_mag_0.nand2_mag_3.IN1 CLK_div_3_mag_0.CLK.t6 VDD.t188 VDD.t187 pfet_03v3 ad=0.352p pd=2.48u as=0.352p ps=2.48u w=0.8u l=0.28u
X164 CLK_div_3_mag_0.JK_FF_mag_0.nand2_mag_1.IN2 CLK_div_3_mag_0.JK_FF_mag_0.nand3_mag_1.IN1 VDD.t32 VDD.t31 pfet_03v3 ad=0.208p pd=1.32u as=0.352p ps=2.48u w=0.8u l=0.28u
X165 VDD CLK_div_3_mag_1.JK_FF_mag_1.nand3_mag_1.OUT CLK_div_3_mag_1.JK_FF_mag_1.nand2_mag_4.IN2 VDD.t52 pfet_03v3 ad=0.352p pd=2.48u as=0.208p ps=1.32u w=0.8u l=0.28u
X166 a_18404_1311# CLK_div_3_mag_2.JK_FF_mag_1.QB CLK_div_3_mag_2.JK_FF_mag_1.nand3_mag_0.OUT VSS.t15 nfet_03v3 ad=0.172p pd=1.18u as=0.29p ps=2.2u w=0.66u l=0.28u
X167 VDD CLK_div_3_mag_0.CLK.t7 CLK_div_3_mag_0.JK_FF_mag_1.nand3_mag_0.OUT VDD.t189 pfet_03v3 ad=0.208p pd=1.32u as=0.208p ps=1.32u w=0.8u l=0.28u
X168 CLK_div_3_mag_0.JK_FF_mag_0.nand3_mag_0.OUT CLK_div_3_mag_0.Q1 VDD.t219 VDD.t218 pfet_03v3 ad=0.208p pd=1.32u as=0.352p ps=2.48u w=0.8u l=0.28u
X169 CLK_div_3_mag_1.JK_FF_mag_1.nand3_mag_0.OUT CLK_div_3_mag_1.CLK.t9 VDD.t409 VDD.t408 pfet_03v3 ad=0.208p pd=1.32u as=0.208p ps=1.32u w=0.8u l=0.28u
X170 VDD CLK_div_3_mag_0.JK_FF_mag_1.K.t5 CLK_div_3_mag_0.Q0 VDD.t243 pfet_03v3 ad=0.352p pd=2.48u as=0.208p ps=1.32u w=0.8u l=0.28u
X171 CLK_div_3_mag_0.JK_FF_mag_0.nand3_mag_1.IN1 CLK_div_3_mag_0.JK_FF_mag_0.nand3_mag_0.OUT VDD.t334 VDD.t333 pfet_03v3 ad=0.208p pd=1.32u as=0.352p ps=2.48u w=0.8u l=0.28u
X172 JK_FF_mag_1.nand2_mag_3.IN1 JK_FF_mag_1.CLK VSS.t12 VSS.t11 nfet_03v3 ad=0.152p pd=1.64u as=0.152p ps=1.64u w=0.22u l=0.28u
X173 CLK_div_3_mag_0.JK_FF_mag_1.nand3_mag_0.OUT CLK_div_3_mag_0.JK_FF_mag_1.QB a_7663_4102# VSS.t91 nfet_03v3 ad=0.29p pd=2.2u as=0.172p ps=1.18u w=0.66u l=0.28u
X174 a_17719_3513# JK_FF_mag_0.nand3_mag_2.OUT VSS.t79 VSS.t78 nfet_03v3 ad=0.172p pd=1.18u as=0.29p ps=2.2u w=0.66u l=0.28u
X175 a_15393_214# CLK_div_3_mag_2.Q0.t6 CLK_div_3_mag_2.JK_FF_mag_0.nand3_mag_2.OUT VSS.t216 nfet_03v3 ad=0.172p pd=1.18u as=0.29p ps=2.2u w=0.66u l=0.28u
X176 VSS CLK_div_3_mag_1.JK_FF_mag_0.nand3_mag_1.OUT a_7699_259# VSS.t192 nfet_03v3 ad=0.194p pd=1.76u as=0.114p ps=0.96u w=0.44u l=0.28u
X177 VSS CLK_div_3_mag_2.Q1.t7 a_15547_1311# VSS.t75 nfet_03v3 ad=0.29p pd=2.2u as=0.172p ps=1.18u w=0.66u l=0.28u
X178 CLK_div_3_mag_0.or_2_mag_0.GF_INV_MAG_1.IN CLK_div_3_mag_0.or_2_mag_0.IN2 VSS.t204 VSS.t116 nfet_03v3 ad=86.8f pd=0.92u as=0.152p ps=1.64u w=0.22u l=0.28u
X179 a_11808_4102# CLK_div_3_mag_0.JK_FF_mag_0.nand3_mag_1.IN1 VSS.t20 VSS.t19 nfet_03v3 ad=0.114p pd=0.96u as=0.194p ps=1.76u w=0.44u l=0.28u
X180 CLK_div_3_mag_0.Q0 CLK_div_3_mag_0.JK_FF_mag_0.nand2_mag_1.IN2 VDD.t344 VDD.t343 pfet_03v3 ad=0.208p pd=1.32u as=0.352p ps=2.48u w=0.8u l=0.28u
X181 a_11998_1312# CLK_div_3_mag_1.JK_FF_mag_1.QB CLK_div_3_mag_1.JK_FF_mag_1.nand3_mag_0.OUT VSS.t132 nfet_03v3 ad=0.172p pd=1.18u as=0.29p ps=2.2u w=0.66u l=0.28u
X182 VSS CLK_div_3_mag_2.JK_FF_mag_1.nand3_mag_1.OUT a_17122_258# VSS.t59 nfet_03v3 ad=0.194p pd=1.76u as=0.114p ps=0.96u w=0.44u l=0.28u
X183 CLK_div_3_mag_1.JK_FF_mag_0.nand3_mag_2.OUT CLK_div_3_mag_1.CLK.t10 VDD.t411 VDD.t410 pfet_03v3 ad=0.208p pd=1.32u as=0.208p ps=1.32u w=0.8u l=0.28u
X184 a_17155_3513# JK_FF_mag_1.Q a_16995_3513# VSS.t268 nfet_03v3 ad=0.172p pd=1.18u as=0.172p ps=1.18u w=0.66u l=0.28u
X185 VSS CLK_div_3_mag_1.JK_FF_mag_1.K.t3 a_12158_1312# VSS.t28 nfet_03v3 ad=0.29p pd=2.2u as=0.172p ps=1.18u w=0.66u l=0.28u
X186 JK_FF_mag_0.nand2_mag_3.IN1 JK_FF_mag_1.Q VDD.t424 VDD.t423 pfet_03v3 ad=0.352p pd=2.48u as=0.352p ps=2.48u w=0.8u l=0.28u
X187 a_7663_4102# CLK_div_3_mag_0.CLK.t8 a_7503_4102# VSS.t91 nfet_03v3 ad=0.172p pd=1.18u as=0.172p ps=1.18u w=0.66u l=0.28u
X188 a_10520_4102# CLK_div_3_mag_0.Q1 VSS.t135 VSS.t91 nfet_03v3 ad=0.172p pd=1.18u as=0.29p ps=2.2u w=0.66u l=0.28u
X189 CLK_div_3_mag_0.Q0 CLK_div_3_mag_0.JK_FF_mag_1.K.t6 a_12372_4102# VSS.t19 nfet_03v3 ad=0.194p pd=1.76u as=0.114p ps=0.96u w=0.44u l=0.28u
X190 JK_FF_mag_1.nand3_mag_1.OUT JK_FF_mag_1.nand3_mag_1.IN1 VDD.t391 VDD.t390 pfet_03v3 ad=0.352p pd=2.48u as=0.208p ps=1.32u w=0.8u l=0.28u
X191 VDD CLK_div_3_mag_1.JK_FF_mag_0.nand3_mag_1.IN1 CLK_div_3_mag_1.JK_FF_mag_0.nand3_mag_1.OUT VDD.t272 pfet_03v3 ad=0.208p pd=1.32u as=0.352p ps=2.48u w=0.8u l=0.28u
X192 VSS CLK_div_3_mag_2.JK_FF_mag_1.nand3_mag_1.IN1 a_17276_1355# VSS.t48 nfet_03v3 ad=0.194p pd=1.76u as=0.114p ps=0.96u w=0.44u l=0.28u
X193 JK_FF_mag_0.nand3_mag_0.OUT VDD.t151 VDD.t153 VDD.t152 pfet_03v3 ad=0.208p pd=1.32u as=0.352p ps=2.48u w=0.8u l=0.28u
X194 VDD CLK_div_3_mag_2.JK_FF_mag_0.nand3_mag_1.IN1 CLK_div_3_mag_2.JK_FF_mag_0.nand3_mag_1.OUT VDD.t3 pfet_03v3 ad=0.208p pd=1.32u as=0.352p ps=2.48u w=0.8u l=0.28u
X195 a_17840_1355# CLK_div_3_mag_2.JK_FF_mag_1.nand3_mag_1.OUT CLK_div_3_mag_2.JK_FF_mag_1.nand3_mag_1.IN1 VSS.t58 nfet_03v3 ad=0.114p pd=0.96u as=0.194p ps=1.76u w=0.44u l=0.28u
X196 JK_FF_mag_0.nand3_mag_0.OUT JK_FF_mag_0.QB VDD.t12 VDD.t11 pfet_03v3 ad=0.352p pd=2.48u as=0.208p ps=1.32u w=0.8u l=0.28u
X197 VDD JK_FF_mag_0.QB Vdiv108.t1 VDD.t9 pfet_03v3 ad=0.352p pd=2.48u as=0.208p ps=1.32u w=0.8u l=0.28u
X198 a_11244_4102# CLK_div_3_mag_0.JK_FF_mag_0.nand3_mag_0.OUT VSS.t201 VSS.t19 nfet_03v3 ad=0.114p pd=0.96u as=0.194p ps=1.76u w=0.44u l=0.28u
X199 JK_FF_mag_0.nand3_mag_1.IN1 JK_FF_mag_0.nand3_mag_0.OUT VDD.t258 VDD.t257 pfet_03v3 ad=0.208p pd=1.32u as=0.352p ps=2.48u w=0.8u l=0.28u
X200 VDD CLK_div_3_mag_2.or_2_mag_0.GF_INV_MAG_1.IN CLK_div_3_mag_1.CLK.t0 VDD.t264 pfet_03v3 ad=0.352p pd=2.48u as=0.352p ps=2.48u w=0.8u l=0.28u
X201 a_12158_1312# CLK_div_3_mag_1.CLK.t11 a_11998_1312# VSS.t262 nfet_03v3 ad=0.172p pd=1.18u as=0.172p ps=1.18u w=0.66u l=0.28u
X202 CLK_div_3_mag_2.JK_FF_mag_0.nand3_mag_2.OUT CLK.t6 VDD.t231 VDD.t230 pfet_03v3 ad=0.208p pd=1.32u as=0.208p ps=1.32u w=0.8u l=0.28u
X203 VDD CLK_div_3_mag_1.JK_FF_mag_1.nand2_mag_4.IN2 CLK_div_3_mag_1.JK_FF_mag_1.QB VDD.t382 pfet_03v3 ad=0.352p pd=2.48u as=0.208p ps=1.32u w=0.8u l=0.28u
X204 a_12372_4102# CLK_div_3_mag_0.JK_FF_mag_0.nand2_mag_1.IN2 VSS.t207 VSS.t19 nfet_03v3 ad=0.114p pd=0.96u as=0.194p ps=1.76u w=0.44u l=0.28u
X205 a_17276_1355# CLK_div_3_mag_2.JK_FF_mag_1.nand2_mag_3.IN1 CLK_div_3_mag_2.JK_FF_mag_1.nand2_mag_1.IN2 VSS.t177 nfet_03v3 ad=0.114p pd=0.96u as=0.194p ps=1.76u w=0.44u l=0.28u