* NGSPICE file created from CLK_div_108_mag_flat.ext - technology: gf180mcuC

.subckt pex_CLK_div_108_mag VSS VDD RST Vdiv108 CLK
X0 CLK_div_3_mag_2.JK_FF_mag_0.nand3_mag_0.OUT CLK_div_3_mag_2.JK_FF_mag_1.K.t3 a_10058_1318# VSS.t247 nfet_03v3 ad=0.29p pd=2.2u as=0.172p ps=1.18u w=0.66u l=0.28u
X1 a_8733_1362# CLK_div_3_mag_2.JK_FF_mag_1.nand2_mag_1.IN2 VSS.t221 VSS.t220 nfet_03v3 ad=0.114p pd=0.96u as=0.194p ps=1.76u w=0.44u l=0.28u
X2 CLK_div_3_mag_2.JK_FF_mag_1.nand2_mag_1.IN2 CLK_div_3_mag_2.JK_FF_mag_1.nand2_mag_3.IN1 a_8169_1362# VSS.t125 nfet_03v3 ad=0.194p pd=1.76u as=0.114p ps=0.96u w=0.44u l=0.28u
X3 VSS JK_FF_mag_0.nand2_mag_1.IN2 a_9803_3948# VSS.t105 nfet_03v3 ad=0.194p pd=1.76u as=0.114p ps=0.96u w=0.44u l=0.28u
X4 a_2486_1354# CLK_div_3_mag_0.JK_FF_mag_1.nand2_mag_1.IN2 VSS.t149 VSS.t148 nfet_03v3 ad=0.114p pd=0.96u as=0.194p ps=1.76u w=0.44u l=0.28u
X5 a_7759_221# RST.t0 a_7599_221# VSS.t217 nfet_03v3 ad=0.172p pd=1.18u as=0.172p ps=1.18u w=0.66u l=0.28u
X6 a_3805_213# CLK_div_3_mag_0.CLK.t2 a_3645_213# VSS.t195 nfet_03v3 ad=0.172p pd=1.18u as=0.172p ps=1.18u w=0.66u l=0.28u
X7 CLK_div_3_mag_2.JK_FF_mag_1.nand3_mag_2.OUT CLK_div_3_mag_2.Q1 VDD.t101 VDD.t100 pfet_03v3 ad=0.352p pd=2.48u as=0.208p ps=1.32u w=0.8u l=0.28u
X8 CLK_div_3_mag_0.JK_FF_mag_1.nand3_mag_1.OUT CLK_div_3_mag_0.JK_FF_mag_1.nand3_mag_1.IN1 a_1512_213# VSS.t241 nfet_03v3 ad=0.29p pd=2.2u as=0.172p ps=1.18u w=0.66u l=0.28u
X9 VDD CLK_div_3_mag_1.JK_FF_mag_1.QB CLK_div_3_mag_1.JK_FF_mag_1.nand3_mag_0.OUT VDD.t202 pfet_03v3 ad=0.208p pd=1.32u as=0.352p ps=2.48u w=0.8u l=0.28u
X10 VDD JK_FF_mag_1.QB JK_FF_mag_1.nand3_mag_0.OUT VDD.t151 pfet_03v3 ad=0.208p pd=1.32u as=0.352p ps=2.48u w=0.8u l=0.28u
X11 a_10058_1318# CLK_div_3_mag_2.CLK.t2 a_9898_1318# VSS.t216 nfet_03v3 ad=0.172p pd=1.18u as=0.172p ps=1.18u w=0.66u l=0.28u
X12 a_5118_3858# CLK_div_3_mag_1.JK_FF_mag_1.QB CLK_div_3_mag_1.JK_FF_mag_1.nand3_mag_0.OUT VSS.t113 nfet_03v3 ad=0.172p pd=1.18u as=0.29p ps=2.2u w=0.66u l=0.28u
X13 a_8169_1362# CLK_div_3_mag_2.JK_FF_mag_1.nand3_mag_1.IN1 VSS.t270 VSS.t269 nfet_03v3 ad=0.114p pd=0.96u as=0.194p ps=1.76u w=0.44u l=0.28u
X14 a_8320_2831# JK_FF_mag_1.QB JK_FF_mag_1.nand3_mag_0.OUT VSS.t91 nfet_03v3 ad=0.172p pd=1.18u as=0.29p ps=2.2u w=0.66u l=0.28u
X15 VDD CLK_div_3_mag_2.CLK.t3 CLK_div_3_mag_2.JK_FF_mag_0.nand3_mag_2.OUT VDD.t356 pfet_03v3 ad=0.208p pd=1.32u as=0.208p ps=1.32u w=0.8u l=0.28u
X16 CLK_div_3_mag_1.JK_FF_mag_1.nand2_mag_4.IN2 CLK_div_3_mag_1.JK_FF_mag_1.nand2_mag_3.IN1 VDD.t3 VDD.t2 pfet_03v3 ad=0.208p pd=1.32u as=0.352p ps=2.48u w=0.8u l=0.28u
X17 VSS JK_FF_mag_0.CLK JK_FF_mag_0.nand2_mag_3.IN1 VSS.t18 nfet_03v3 ad=0.152p pd=1.64u as=0.152p ps=1.64u w=0.22u l=0.28u
X18 a_2640_257# CLK_div_3_mag_0.JK_FF_mag_1.nand2_mag_4.IN2 VSS.t151 VSS.t150 nfet_03v3 ad=0.114p pd=0.96u as=0.194p ps=1.76u w=0.44u l=0.28u
X19 a_3836_4955# CLK_div_3_mag_1.JK_FF_mag_1.nand2_mag_3.IN1 CLK_div_3_mag_1.JK_FF_mag_1.nand2_mag_4.IN2 VSS.t1 nfet_03v3 ad=0.114p pd=0.96u as=0.194p ps=1.76u w=0.44u l=0.28u
X20 VSS CLK.t0 CLK_div_3_mag_1.JK_FF_mag_1.nand2_mag_3.IN1 VSS.t114 nfet_03v3 ad=0.152p pd=1.64u as=0.152p ps=1.64u w=0.22u l=0.28u
X21 CLK_div_3_mag_1.JK_FF_mag_0.nand3_mag_1.IN1 CLK_div_3_mag_1.JK_FF_mag_0.nand3_mag_1.OUT VDD.t420 VDD.t419 pfet_03v3 ad=0.208p pd=1.32u as=0.352p ps=2.48u w=0.8u l=0.28u
X22 CLK_div_3_mag_2.JK_FF_mag_0.nand3_mag_0.OUT CLK_div_3_mag_2.Q1 VDD.t99 VDD.t98 pfet_03v3 ad=0.208p pd=1.32u as=0.352p ps=2.48u w=0.8u l=0.28u
X23 CLK_div_3_mag_2.JK_FF_mag_1.nand3_mag_1.OUT CLK_div_3_mag_2.JK_FF_mag_1.nand3_mag_1.IN1 VDD.t415 VDD.t414 pfet_03v3 ad=0.352p pd=2.48u as=0.208p ps=1.32u w=0.8u l=0.28u
X24 VDD CLK_div_3_mag_0.CLK.t3 CLK_div_3_mag_0.JK_FF_mag_0.nand3_mag_0.OUT VDD.t184 pfet_03v3 ad=0.208p pd=1.32u as=0.208p ps=1.32u w=0.8u l=0.28u
X25 CLK_div_3_mag_0.JK_FF_mag_1.nand3_mag_1.OUT CLK_div_3_mag_0.JK_FF_mag_1.nand3_mag_2.OUT VDD.t117 VDD.t116 pfet_03v3 ad=0.208p pd=1.32u as=0.352p ps=2.48u w=0.8u l=0.28u
X26 a_1537_3858# CLK_div_3_mag_1.JK_FF_mag_0.nand3_mag_1.OUT CLK_div_3_mag_1.JK_FF_mag_0.nand3_mag_1.IN1 VSS.t0 nfet_03v3 ad=0.114p pd=0.96u as=0.194p ps=1.76u w=0.44u l=0.28u
X27 VDD Vdiv108.t3 JK_FF_mag_1.nand3_mag_2.OUT VDD.t130 pfet_03v3 ad=0.208p pd=1.32u as=0.352p ps=2.48u w=0.8u l=0.28u
X28 VDD VDD.t295 JK_FF_mag_0.nand3_mag_0.OUT VDD.t24 pfet_03v3 ad=0.352p pd=2.48u as=0.208p ps=1.32u w=0.8u l=0.28u
X29 VDD CLK_div_3_mag_0.JK_FF_mag_0.nand3_mag_1.OUT CLK_div_3_mag_0.JK_FF_mag_0.nand3_mag_1.IN1 VDD.t349 pfet_03v3 ad=0.352p pd=2.48u as=0.208p ps=1.32u w=0.8u l=0.28u
X30 CLK_div_3_mag_2.JK_FF_mag_1.nand3_mag_2.OUT CLK_div_3_mag_2.Q1 a_7035_221# VSS.t57 nfet_03v3 ad=0.29p pd=2.2u as=0.172p ps=1.18u w=0.66u l=0.28u
X31 a_8326_3928# Vdiv108.t4 JK_FF_mag_1.nand3_mag_2.OUT VSS.t30 nfet_03v3 ad=0.172p pd=1.18u as=0.29p ps=2.2u w=0.66u l=0.28u
X32 VSS VDD.t437 a_11655_3948# VSS.t165 nfet_03v3 ad=0.29p pd=2.2u as=0.172p ps=1.18u w=0.66u l=0.28u
X33 VDD RST.t1 CLK_div_3_mag_2.JK_FF_mag_0.nand3_mag_1.OUT VDD.t70 pfet_03v3 ad=0.208p pd=1.32u as=0.208p ps=1.32u w=0.8u l=0.28u
X34 VDD CLK_div_3_mag_1.JK_FF_mag_1.nand3_mag_1.IN1 CLK_div_3_mag_1.JK_FF_mag_1.nand3_mag_1.OUT VDD.t306 pfet_03v3 ad=0.208p pd=1.32u as=0.352p ps=2.48u w=0.8u l=0.28u
X35 CLK_div_3_mag_2.or_2_mag_0.IN2 CLK_div_3_mag_2.and2_mag_0.GF_INV_MAG_0.IN VDD.t8 VDD.t7 pfet_03v3 ad=0.352p pd=2.48u as=0.352p ps=2.48u w=0.8u l=0.28u
X36 a_4400_4955# CLK_div_3_mag_1.JK_FF_mag_1.nand3_mag_1.IN1 CLK_div_3_mag_1.JK_FF_mag_1.nand3_mag_1.OUT VSS.t186 nfet_03v3 ad=0.172p pd=1.18u as=0.29p ps=2.2u w=0.66u l=0.28u
X37 VDD CLK_div_3_mag_1.Q1.t3 CLK_div_3_mag_1.JK_FF_mag_1.nand3_mag_2.OUT VDD.t255 pfet_03v3 ad=0.208p pd=1.32u as=0.352p ps=2.48u w=0.8u l=0.28u
X38 VDD CLK_div_3_mag_1.JK_FF_mag_1.K.t2 CLK_div_3_mag_1.JK_FF_mag_0.nand3_mag_0.OUT VDD.t258 pfet_03v3 ad=0.208p pd=1.32u as=0.352p ps=2.48u w=0.8u l=0.28u
X39 VDD CLK_div_3_mag_0.JK_FF_mag_1.K.t3 CLK_div_3_mag_0.Q0 VDD.t366 pfet_03v3 ad=0.352p pd=2.48u as=0.208p ps=1.32u w=0.8u l=0.28u
X40 a_5124_4955# CLK_div_3_mag_1.Q1.t4 CLK_div_3_mag_1.JK_FF_mag_1.nand3_mag_2.OUT VSS.t157 nfet_03v3 ad=0.172p pd=1.18u as=0.29p ps=2.2u w=0.66u l=0.28u
X41 CLK_div_3_mag_2.and2_mag_0.GF_INV_MAG_0.IN CLK_div_3_mag_2.CLK.t4 VDD.t359 VDD.t7 pfet_03v3 ad=0.208p pd=1.32u as=0.352p ps=2.48u w=0.8u l=0.28u
X42 CLK_div_3_mag_0.JK_FF_mag_0.nand3_mag_1.IN1 CLK_div_3_mag_0.JK_FF_mag_0.nand3_mag_0.OUT VDD.t168 VDD.t167 pfet_03v3 ad=0.208p pd=1.32u as=0.352p ps=2.48u w=0.8u l=0.28u
X43 CLK_div_3_mag_0.JK_FF_mag_1.nand2_mag_3.IN1 CLK_div_3_mag_0.CLK.t4 VSS.t146 VSS.t145 nfet_03v3 ad=0.152p pd=1.64u as=0.152p ps=1.64u w=0.22u l=0.28u
X44 CLK_div_3_mag_2.JK_FF_mag_0.nand3_mag_1.IN1 CLK_div_3_mag_2.JK_FF_mag_0.nand3_mag_1.OUT a_10622_1362# VSS.t74 nfet_03v3 ad=0.194p pd=1.76u as=0.114p ps=0.96u w=0.44u l=0.28u
X45 a_2101_3858# CLK_div_3_mag_1.JK_FF_mag_1.K.t3 CLK_div_3_mag_1.JK_FF_mag_0.nand3_mag_0.OUT VSS.t113 nfet_03v3 ad=0.172p pd=1.18u as=0.29p ps=2.2u w=0.66u l=0.28u
X46 VDD CLK_div_3_mag_2.CLK.t5 CLK_div_3_mag_2.JK_FF_mag_1.nand3_mag_0.OUT VDD.t80 pfet_03v3 ad=0.208p pd=1.32u as=0.208p ps=1.32u w=0.8u l=0.28u
X47 a_10052_221# CLK_div_3_mag_2.CLK.t6 a_9892_221# VSS.t44 nfet_03v3 ad=0.172p pd=1.18u as=0.172p ps=1.18u w=0.66u l=0.28u
X48 VDD CLK_div_3_mag_1.or_2_mag_0.GF_INV_MAG_1.IN CLK_div_3_mag_0.CLK.t0 VDD.t252 pfet_03v3 ad=0.352p pd=2.48u as=0.352p ps=2.48u w=0.8u l=0.28u
X49 CLK_div_3_mag_0.JK_FF_mag_0.nand3_mag_1.OUT CLK_div_3_mag_0.JK_FF_mag_0.nand3_mag_1.IN1 VDD.t355 VDD.t354 pfet_03v3 ad=0.352p pd=2.48u as=0.208p ps=1.32u w=0.8u l=0.28u
X50 CLK_div_3_mag_0.JK_FF_mag_1.nand2_mag_4.IN2 CLK_div_3_mag_0.JK_FF_mag_1.nand3_mag_1.OUT VDD.t324 VDD.t323 pfet_03v3 ad=0.208p pd=1.32u as=0.352p ps=2.48u w=0.8u l=0.28u
X51 CLK_div_3_mag_1.Q0 CLK_div_3_mag_1.JK_FF_mag_1.K.t4 VDD.t235 VDD.t234 pfet_03v3 ad=0.208p pd=1.32u as=0.352p ps=2.48u w=0.8u l=0.28u
X52 VDD VDD.t291 CLK_div_3_mag_1.JK_FF_mag_0.nand3_mag_2.OUT VDD.t292 pfet_03v3 ad=0.352p pd=2.48u as=0.208p ps=1.32u w=0.8u l=0.28u
X53 VSS CLK.t1 CLK_div_3_mag_1.JK_FF_mag_0.nand2_mag_3.IN1 VSS.t117 nfet_03v3 ad=0.152p pd=1.64u as=0.152p ps=1.64u w=0.22u l=0.28u
X54 CLK_div_3_mag_2.JK_FF_mag_1.nand3_mag_1.OUT CLK_div_3_mag_2.JK_FF_mag_1.nand3_mag_1.IN1 a_7759_221# VSS.t268 nfet_03v3 ad=0.29p pd=2.2u as=0.172p ps=1.18u w=0.66u l=0.28u
X55 a_9898_1318# CLK_div_3_mag_2.Q1 VSS.t56 VSS.t55 nfet_03v3 ad=0.172p pd=1.18u as=0.29p ps=2.2u w=0.66u l=0.28u
X56 VSS VDD.t439 a_2267_4955# VSS.t168 nfet_03v3 ad=0.29p pd=2.2u as=0.172p ps=1.18u w=0.66u l=0.28u
X57 CLK_div_3_mag_1.JK_FF_mag_0.nand3_mag_1.OUT RST.t2 VDD.t69 VDD.t68 pfet_03v3 ad=0.208p pd=1.32u as=0.208p ps=1.32u w=0.8u l=0.28u
X58 a_409_3858# CLK_div_3_mag_1.JK_FF_mag_1.K.t5 CLK_div_3_mag_1.Q0.t1 VSS.t0 nfet_03v3 ad=0.114p pd=0.96u as=0.194p ps=1.76u w=0.44u l=0.28u
X59 CLK_div_3_mag_2.JK_FF_mag_1.nand2_mag_3.IN1 CLK_div_3_mag_2.CLK.t7 VDD.t84 VDD.t83 pfet_03v3 ad=0.352p pd=2.48u as=0.352p ps=2.48u w=0.8u l=0.28u
X60 CLK_div_3_mag_2.JK_FF_mag_1.nand3_mag_0.OUT CLK_div_3_mag_2.JK_FF_mag_1.K.t4 VDD.t403 VDD.t402 pfet_03v3 ad=0.208p pd=1.32u as=0.352p ps=2.48u w=0.8u l=0.28u
X61 VDD CLK_div_3_mag_2.JK_FF_mag_0.nand2_mag_3.IN1 CLK_div_3_mag_2.JK_FF_mag_0.nand2_mag_1.IN2 VDD.t334 pfet_03v3 ad=0.352p pd=2.48u as=0.208p ps=1.32u w=0.8u l=0.28u
X62 a_3811_1310# CLK_div_3_mag_0.CLK.t5 a_3651_1310# VSS.t147 nfet_03v3 ad=0.172p pd=1.18u as=0.172p ps=1.18u w=0.66u l=0.28u
X63 a_1352_213# CLK_div_3_mag_0.JK_FF_mag_1.nand3_mag_2.OUT VSS.t67 VSS.t66 nfet_03v3 ad=0.172p pd=1.18u as=0.29p ps=2.2u w=0.66u l=0.28u
X64 VDD CLK_div_3_mag_2.JK_FF_mag_1.QB CLK_div_3_mag_2.Q1 VDD.t104 pfet_03v3 ad=0.352p pd=2.48u as=0.208p ps=1.32u w=0.8u l=0.28u
X65 CLK_div_3_mag_2.Q0 CLK_div_3_mag_2.JK_FF_mag_0.nand2_mag_1.IN2 VDD.t338 VDD.t337 pfet_03v3 ad=0.208p pd=1.32u as=0.352p ps=2.48u w=0.8u l=0.28u
X66 CLK_div_3_mag_2.JK_FF_mag_0.nand2_mag_4.IN2 CLK_div_3_mag_2.JK_FF_mag_0.nand2_mag_3.IN1 a_11340_265# VSS.t199 nfet_03v3 ad=0.194p pd=1.76u as=0.114p ps=0.96u w=0.44u l=0.28u
X67 a_1543_4955# RST.t3 a_1383_4955# VSS.t218 nfet_03v3 ad=0.172p pd=1.18u as=0.172p ps=1.18u w=0.66u l=0.28u
X68 CLK_div_3_mag_2.JK_FF_mag_1.nand3_mag_0.OUT CLK_div_3_mag_2.JK_FF_mag_1.QB VDD.t103 VDD.t102 pfet_03v3 ad=0.352p pd=2.48u as=0.208p ps=1.32u w=0.8u l=0.28u
X69 CLK_div_3_mag_2.or_2_mag_0.GF_INV_MAG_1.IN CLK_div_3_mag_2.Q0 a_11307_2697# VDD.t9 pfet_03v3 ad=0.704p pd=4.08u as=0.416p ps=2.12u w=1.6u l=0.28u
X70 JK_FF_mag_0.CLK CLK_div_3_mag_2.or_2_mag_0.GF_INV_MAG_1.IN VDD.t330 VDD.t329 pfet_03v3 ad=0.352p pd=2.48u as=0.352p ps=2.48u w=0.8u l=0.28u
X71 CLK_div_3_mag_2.JK_FF_mag_1.nand3_mag_1.IN1 CLK_div_3_mag_2.JK_FF_mag_1.nand3_mag_0.OUT VDD.t120 VDD.t119 pfet_03v3 ad=0.208p pd=1.32u as=0.352p ps=2.48u w=0.8u l=0.28u
X72 a_10776_221# RST.t4 a_10616_221# VSS.t219 nfet_03v3 ad=0.172p pd=1.18u as=0.172p ps=1.18u w=0.66u l=0.28u
X73 CLK_div_3_mag_2.JK_FF_mag_0.nand3_mag_2.OUT CLK_div_3_mag_2.Q0 VDD.t408 VDD.t407 pfet_03v3 ad=0.352p pd=2.48u as=0.208p ps=1.32u w=0.8u l=0.28u
X74 CLK_div_3_mag_1.JK_FF_mag_0.nand3_mag_2.OUT CLK.t2 VDD.t198 VDD.t197 pfet_03v3 ad=0.208p pd=1.32u as=0.208p ps=1.32u w=0.8u l=0.28u
X75 a_2267_4955# CLK.t3 a_2107_4955# VSS.t120 nfet_03v3 ad=0.172p pd=1.18u as=0.172p ps=1.18u w=0.66u l=0.28u
X76 VDD CLK_div_3_mag_1.JK_FF_mag_0.nand3_mag_1.IN1 CLK_div_3_mag_1.JK_FF_mag_0.nand3_mag_1.OUT VDD.t424 pfet_03v3 ad=0.208p pd=1.32u as=0.352p ps=2.48u w=0.8u l=0.28u
X77 VSS CLK_div_3_mag_1.or_2_mag_0.GF_INV_MAG_1.IN CLK_div_3_mag_0.CLK.t1 VSS.t162 nfet_03v3 ad=0.152p pd=1.64u as=0.152p ps=1.64u w=0.22u l=0.28u
X78 CLK_div_3_mag_2.JK_FF_mag_0.nand2_mag_1.IN2 CLK_div_3_mag_2.JK_FF_mag_0.nand3_mag_1.IN1 VDD.t79 VDD.t78 pfet_03v3 ad=0.208p pd=1.32u as=0.352p ps=2.48u w=0.8u l=0.28u
X79 a_1383_4955# CLK_div_3_mag_1.JK_FF_mag_0.nand3_mag_1.IN1 CLK_div_3_mag_1.JK_FF_mag_0.nand3_mag_1.OUT VSS.t276 nfet_03v3 ad=0.172p pd=1.18u as=0.29p ps=2.2u w=0.66u l=0.28u
X80 VDD CLK_div_3_mag_1.JK_FF_mag_0.nand3_mag_1.OUT CLK_div_3_mag_1.JK_FF_mag_0.nand2_mag_4.IN2 VDD.t416 pfet_03v3 ad=0.352p pd=2.48u as=0.208p ps=1.32u w=0.8u l=0.28u
X81 a_7041_1318# CLK_div_3_mag_2.CLK.t8 a_6881_1318# VSS.t45 nfet_03v3 ad=0.172p pd=1.18u as=0.172p ps=1.18u w=0.66u l=0.28u
X82 CLK_div_3_mag_2.JK_FF_mag_1.QB CLK_div_3_mag_2.JK_FF_mag_1.nand2_mag_4.IN2 VDD.t230 VDD.t229 pfet_03v3 ad=0.208p pd=1.32u as=0.352p ps=2.48u w=0.8u l=0.28u
X83 CLK_div_3_mag_0.JK_FF_mag_0.nand3_mag_1.OUT CLK_div_3_mag_0.JK_FF_mag_0.nand3_mag_1.IN1 a_4529_213# VSS.t215 nfet_03v3 ad=0.29p pd=2.2u as=0.172p ps=1.18u w=0.66u l=0.28u
X84 VSS CLK_div_3_mag_1.JK_FF_mag_0.nand3_mag_1.OUT a_819_4955# VSS.t271 nfet_03v3 ad=0.194p pd=1.76u as=0.114p ps=0.96u w=0.44u l=0.28u
X85 VDD CLK_div_3_mag_1.JK_FF_mag_0.nand2_mag_4.IN2 CLK_div_3_mag_1.JK_FF_mag_1.K.t1 VDD.t429 pfet_03v3 ad=0.352p pd=2.48u as=0.208p ps=1.32u w=0.8u l=0.28u
X86 VDD CLK_div_3_mag_1.or_2_mag_0.IN2 a_852_2291# VDD.t300 pfet_03v3 ad=0.704p pd=4.08u as=0.416p ps=2.12u w=1.6u l=0.28u
X87 VDD CLK_div_3_mag_0.Q1 CLK_div_3_mag_0.JK_FF_mag_1.QB VDD.t382 pfet_03v3 ad=0.352p pd=2.48u as=0.208p ps=1.32u w=0.8u l=0.28u
X88 CLK_div_3_mag_2.JK_FF_mag_0.nand3_mag_1.OUT CLK_div_3_mag_2.JK_FF_mag_0.nand3_mag_1.IN1 VDD.t77 VDD.t76 pfet_03v3 ad=0.352p pd=2.48u as=0.208p ps=1.32u w=0.8u l=0.28u
X89 VSS CLK_div_3_mag_1.JK_FF_mag_0.nand2_mag_4.IN2 a_255_4955# VSS.t279 nfet_03v3 ad=0.194p pd=1.76u as=0.114p ps=0.96u w=0.44u l=0.28u
X90 JK_FF_mag_0.Q JK_FF_mag_0.QB VDD.t222 VDD.t221 pfet_03v3 ad=0.208p pd=1.32u as=0.352p ps=2.48u w=0.8u l=0.28u
X91 a_6881_1318# CLK_div_3_mag_2.JK_FF_mag_1.K.t5 VSS.t246 VSS.t245 nfet_03v3 ad=0.172p pd=1.18u as=0.29p ps=2.2u w=0.66u l=0.28u
X92 CLK_div_3_mag_2.JK_FF_mag_1.nand3_mag_0.OUT CLK_div_3_mag_2.JK_FF_mag_1.QB a_7041_1318# VSS.t59 nfet_03v3 ad=0.29p pd=2.2u as=0.172p ps=1.18u w=0.66u l=0.28u
X93 a_9803_3948# JK_FF_mag_0.QB JK_FF_mag_0.Q.t1 VSS.t127 nfet_03v3 ad=0.114p pd=0.96u as=0.194p ps=1.76u w=0.44u l=0.28u
X94 CLK_div_3_mag_2.JK_FF_mag_0.nand3_mag_2.OUT CLK_div_3_mag_2.Q0 a_10052_221# VSS.t252 nfet_03v3 ad=0.29p pd=2.2u as=0.172p ps=1.18u w=0.66u l=0.28u
X95 VSS CLK.t4 a_1825_2759# VSS.t121 nfet_03v3 ad=0.194p pd=1.76u as=0.114p ps=0.96u w=0.44u l=0.28u
X96 VDD CLK_div_3_mag_0.CLK.t6 CLK_div_3_mag_0.JK_FF_mag_1.nand3_mag_2.OUT VDD.t181 pfet_03v3 ad=0.208p pd=1.32u as=0.208p ps=1.32u w=0.8u l=0.28u
X97 CLK_div_3_mag_0.JK_FF_mag_1.K CLK_div_3_mag_0.JK_FF_mag_0.nand2_mag_4.IN2 VDD.t374 VDD.t373 pfet_03v3 ad=0.208p pd=1.32u as=0.352p ps=2.48u w=0.8u l=0.28u
X98 VDD CLK_div_3_mag_0.JK_FF_mag_1.nand2_mag_3.IN1 CLK_div_3_mag_0.JK_FF_mag_1.nand2_mag_4.IN2 VDD.t317 pfet_03v3 ad=0.352p pd=2.48u as=0.208p ps=1.32u w=0.8u l=0.28u
X99 CLK_div_3_mag_0.JK_FF_mag_0.nand3_mag_1.IN1 CLK_div_3_mag_0.JK_FF_mag_0.nand3_mag_1.OUT a_4375_1354# VSS.t212 nfet_03v3 ad=0.194p pd=1.76u as=0.114p ps=0.96u w=0.44u l=0.28u
X100 VSS CLK_div_3_mag_1.or_2_mag_0.IN2 CLK_div_3_mag_1.or_2_mag_0.GF_INV_MAG_1.IN VSS.t181 nfet_03v3 ad=0.152p pd=1.64u as=86.8f ps=0.92u w=0.22u l=0.28u
X101 CLK_div_3_mag_0.JK_FF_mag_0.nand3_mag_2.OUT CLK_div_3_mag_0.Q0 VDD.t18 VDD.t17 pfet_03v3 ad=0.352p pd=2.48u as=0.208p ps=1.32u w=0.8u l=0.28u
X102 CLK_div_3_mag_2.JK_FF_mag_1.nand2_mag_4.IN2 CLK_div_3_mag_2.JK_FF_mag_1.nand3_mag_1.OUT VDD.t166 VDD.t165 pfet_03v3 ad=0.208p pd=1.32u as=0.352p ps=2.48u w=0.8u l=0.28u
X103 VSS CLK_div_3_mag_2.Q0 CLK_div_3_mag_2.or_2_mag_0.GF_INV_MAG_1.IN VSS.t249 nfet_03v3 ad=0.152p pd=1.64u as=86.8f ps=0.92u w=0.22u l=0.28u
X104 CLK_div_3_mag_0.Q0 CLK_div_3_mag_0.JK_FF_mag_1.K.t4 a_5503_1354# VSS.t226 nfet_03v3 ad=0.194p pd=1.76u as=0.114p ps=0.96u w=0.44u l=0.28u
X105 VDD JK_FF_mag_0.nand3_mag_1.IN1 JK_FF_mag_0.nand2_mag_1.IN2 VDD.t24 pfet_03v3 ad=0.352p pd=2.48u as=0.208p ps=1.32u w=0.8u l=0.28u
X106 CLK_div_3_mag_0.JK_FF_mag_0.nand2_mag_3.IN1 CLK_div_3_mag_0.CLK.t7 VDD.t180 VDD.t179 pfet_03v3 ad=0.352p pd=2.48u as=0.352p ps=2.48u w=0.8u l=0.28u
X107 CLK_div_3_mag_0.JK_FF_mag_0.nand2_mag_1.IN2 CLK_div_3_mag_0.JK_FF_mag_0.nand3_mag_1.IN1 VDD.t353 VDD.t352 pfet_03v3 ad=0.208p pd=1.32u as=0.352p ps=2.48u w=0.8u l=0.28u
X108 a_4375_1354# CLK_div_3_mag_0.JK_FF_mag_0.nand3_mag_0.OUT VSS.t102 VSS.t101 nfet_03v3 ad=0.114p pd=0.96u as=0.194p ps=1.76u w=0.44u l=0.28u
X109 CLK_div_3_mag_2.JK_FF_mag_0.nand3_mag_1.OUT CLK_div_3_mag_2.JK_FF_mag_0.nand3_mag_1.IN1 a_10776_221# VSS.t43 nfet_03v3 ad=0.29p pd=2.2u as=0.172p ps=1.18u w=0.66u l=0.28u
X110 JK_FF_mag_0.nand3_mag_1.IN1 JK_FF_mag_0.nand3_mag_1.OUT VDD.t228 VDD.t24 pfet_03v3 ad=0.208p pd=1.32u as=0.352p ps=2.48u w=0.8u l=0.28u
X111 CLK_div_3_mag_2.and2_mag_0.GF_INV_MAG_0.IN CLK_div_3_mag_2.Q1 a_10334_2461# VSS.t54 nfet_03v3 ad=0.194p pd=1.76u as=0.114p ps=0.96u w=0.44u l=0.28u
X112 CLK_div_3_mag_0.JK_FF_mag_0.nand3_mag_0.OUT CLK_div_3_mag_0.Q1 VDD.t381 VDD.t380 pfet_03v3 ad=0.208p pd=1.32u as=0.352p ps=2.48u w=0.8u l=0.28u
X113 VSS JK_FF_mag_0.nand3_mag_1.IN1 a_10367_3948# VSS.t109 nfet_03v3 ad=0.194p pd=1.76u as=0.114p ps=0.96u w=0.44u l=0.28u
X114 a_10931_3948# JK_FF_mag_0.nand3_mag_1.OUT JK_FF_mag_0.nand3_mag_1.IN1 VSS.t140 nfet_03v3 ad=0.114p pd=0.96u as=0.194p ps=1.76u w=0.44u l=0.28u
X115 CLK_div_3_mag_0.or_2_mag_0.GF_INV_MAG_1.IN CLK_div_3_mag_0.Q0 a_5060_2689# VDD.t16 pfet_03v3 ad=0.704p pd=4.08u as=0.416p ps=2.12u w=1.6u l=0.28u
X116 a_2076_257# CLK_div_3_mag_0.JK_FF_mag_1.nand3_mag_1.OUT VSS.t194 VSS.t193 nfet_03v3 ad=0.114p pd=0.96u as=0.194p ps=1.76u w=0.44u l=0.28u
X117 JK_FF_mag_0.nand3_mag_0.OUT JK_FF_mag_0.CLK VDD.t25 VDD.t24 pfet_03v3 ad=0.208p pd=1.32u as=0.208p ps=1.32u w=0.8u l=0.28u
X118 a_11655_3948# JK_FF_mag_0.CLK a_11495_3948# VSS.t17 nfet_03v3 ad=0.172p pd=1.18u as=0.172p ps=1.18u w=0.66u l=0.28u
X119 VDD CLK_div_3_mag_1.JK_FF_mag_1.nand2_mag_1.IN2 CLK_div_3_mag_1.Q1.t2 VDD.t409 pfet_03v3 ad=0.352p pd=2.48u as=0.208p ps=1.32u w=0.8u l=0.28u
X120 JK_FF_mag_0.nand2_mag_1.IN2 JK_FF_mag_0.nand2_mag_3.IN1 VDD.t28 VDD.t24 pfet_03v3 ad=0.208p pd=1.32u as=0.352p ps=2.48u w=0.8u l=0.28u
X121 VDD JK_FF_mag_1.nand2_mag_1.IN2 Vdiv108.t0 VDD.t140 pfet_03v3 ad=0.352p pd=2.48u as=0.208p ps=1.32u w=0.8u l=0.28u
X122 a_788_213# CLK_div_3_mag_0.CLK.t8 a_628_213# VSS.t89 nfet_03v3 ad=0.172p pd=1.18u as=0.172p ps=1.18u w=0.66u l=0.28u
X123 VDD CLK_div_3_mag_2.Q1 CLK_div_3_mag_2.JK_FF_mag_1.QB VDD.t95 pfet_03v3 ad=0.352p pd=2.48u as=0.208p ps=1.32u w=0.8u l=0.28u
X124 CLK_div_3_mag_1.JK_FF_mag_1.nand2_mag_1.IN2 CLK_div_3_mag_1.JK_FF_mag_1.nand2_mag_3.IN1 VDD.t1 VDD.t0 pfet_03v3 ad=0.208p pd=1.32u as=0.352p ps=2.48u w=0.8u l=0.28u
X125 CLK_div_3_mag_1.or_2_mag_0.GF_INV_MAG_1.IN CLK_div_3_mag_1.Q0.t3 VSS.t61 VSS.t60 nfet_03v3 ad=86.8f pd=0.92u as=0.152p ps=1.64u w=0.22u l=0.28u
X126 VDD CLK_div_3_mag_0.JK_FF_mag_0.nand2_mag_3.IN1 CLK_div_3_mag_0.JK_FF_mag_0.nand2_mag_1.IN2 VDD.t37 pfet_03v3 ad=0.352p pd=2.48u as=0.208p ps=1.32u w=0.8u l=0.28u
X127 CLK_div_3_mag_2.JK_FF_mag_0.nand2_mag_3.IN1 CLK_div_3_mag_2.CLK.t9 VSS.t47 VSS.t46 nfet_03v3 ad=0.152p pd=1.64u as=0.152p ps=1.64u w=0.22u l=0.28u
X128 VSS CLK_div_3_mag_1.JK_FF_mag_1.nand2_mag_1.IN2 a_3426_3858# VSS.t0 nfet_03v3 ad=0.194p pd=1.76u as=0.114p ps=0.96u w=0.44u l=0.28u
X129 a_3990_3858# CLK_div_3_mag_1.JK_FF_mag_1.nand2_mag_3.IN1 CLK_div_3_mag_1.JK_FF_mag_1.nand2_mag_1.IN2 VSS.t0 nfet_03v3 ad=0.114p pd=0.96u as=0.194p ps=1.76u w=0.44u l=0.28u
X130 a_10367_3948# JK_FF_mag_0.nand2_mag_3.IN1 JK_FF_mag_0.nand2_mag_1.IN2 VSS.t22 nfet_03v3 ad=0.114p pd=0.96u as=0.194p ps=1.76u w=0.44u l=0.28u
X131 VDD JK_FF_mag_0.nand3_mag_0.OUT JK_FF_mag_0.nand3_mag_1.IN1 VDD.t24 pfet_03v3 ad=0.352p pd=2.48u as=0.208p ps=1.32u w=0.8u l=0.28u
X132 a_5060_2689# CLK_div_3_mag_0.or_2_mag_0.IN2 VDD.t118 VDD.t16 pfet_03v3 ad=0.416p pd=2.12u as=0.704p ps=4.08u w=1.6u l=0.28u
X133 VSS JK_FF_mag_1.nand2_mag_1.IN2 a_6628_2831# VSS.t79 nfet_03v3 ad=0.194p pd=1.76u as=0.114p ps=0.96u w=0.44u l=0.28u
X134 CLK_div_3_mag_0.Q0 CLK_div_3_mag_0.JK_FF_mag_0.nand2_mag_1.IN2 VDD.t41 VDD.t40 pfet_03v3 ad=0.208p pd=1.32u as=0.352p ps=2.48u w=0.8u l=0.28u
X135 CLK_div_3_mag_0.JK_FF_mag_0.nand2_mag_4.IN2 CLK_div_3_mag_0.JK_FF_mag_0.nand3_mag_1.OUT VDD.t348 VDD.t347 pfet_03v3 ad=0.208p pd=1.32u as=0.352p ps=2.48u w=0.8u l=0.28u
X136 CLK_div_3_mag_2.Q0 CLK_div_3_mag_2.JK_FF_mag_1.K.t6 a_11750_1362# VSS.t244 nfet_03v3 ad=0.194p pd=1.76u as=0.114p ps=0.96u w=0.44u l=0.28u
X137 VDD CLK_div_3_mag_1.JK_FF_mag_1.nand3_mag_0.OUT CLK_div_3_mag_1.JK_FF_mag_1.nand3_mag_1.IN1 VDD.t394 pfet_03v3 ad=0.352p pd=2.48u as=0.208p ps=1.32u w=0.8u l=0.28u
X138 VDD JK_FF_mag_0.QB JK_FF_mag_0.nand3_mag_0.OUT VDD.t24 pfet_03v3 ad=0.208p pd=1.32u as=0.352p ps=2.48u w=0.8u l=0.28u
X139 a_10622_1362# CLK_div_3_mag_2.JK_FF_mag_0.nand3_mag_0.OUT VSS.t223 VSS.t222 nfet_03v3 ad=0.114p pd=0.96u as=0.194p ps=1.76u w=0.44u l=0.28u
X140 CLK_div_3_mag_2.JK_FF_mag_1.nand3_mag_1.IN1 CLK_div_3_mag_2.JK_FF_mag_1.nand3_mag_1.OUT a_7605_1362# VSS.t100 nfet_03v3 ad=0.194p pd=1.76u as=0.114p ps=0.96u w=0.44u l=0.28u
X141 VSS CLK_div_3_mag_1.JK_FF_mag_1.nand3_mag_0.OUT a_4554_3858# VSS.t0 nfet_03v3 ad=0.194p pd=1.76u as=0.114p ps=0.96u w=0.44u l=0.28u
X142 VSS JK_FF_mag_0.nand3_mag_0.OUT a_10931_3948# VSS.t204 nfet_03v3 ad=0.194p pd=1.76u as=0.114p ps=0.96u w=0.44u l=0.28u
X143 a_11495_3948# JK_FF_mag_0.QB JK_FF_mag_0.nand3_mag_0.OUT VSS.t126 nfet_03v3 ad=0.172p pd=1.18u as=0.29p ps=2.2u w=0.66u l=0.28u
X144 CLK_div_3_mag_0.JK_FF_mag_0.nand3_mag_2.OUT CLK_div_3_mag_0.Q0 a_3805_213# VSS.t15 nfet_03v3 ad=0.29p pd=2.2u as=0.172p ps=1.18u w=0.66u l=0.28u
X145 VDD VDD.t287 JK_FF_mag_0.nand3_mag_2.OUT VDD.t288 pfet_03v3 ad=0.352p pd=2.48u as=0.208p ps=1.32u w=0.8u l=0.28u
X146 VDD CLK_div_3_mag_0.JK_FF_mag_1.nand3_mag_1.OUT CLK_div_3_mag_0.JK_FF_mag_1.nand3_mag_1.IN1 VDD.t320 pfet_03v3 ad=0.352p pd=2.48u as=0.208p ps=1.32u w=0.8u l=0.28u
X147 CLK_div_3_mag_0.JK_FF_mag_1.nand2_mag_1.IN2 CLK_div_3_mag_0.JK_FF_mag_1.nand3_mag_1.IN1 VDD.t393 VDD.t392 pfet_03v3 ad=0.208p pd=1.32u as=0.352p ps=2.48u w=0.8u l=0.28u
X148 a_3651_1310# CLK_div_3_mag_0.Q1 VSS.t236 VSS.t235 nfet_03v3 ad=0.172p pd=1.18u as=0.29p ps=2.2u w=0.66u l=0.28u
X149 a_8887_265# CLK_div_3_mag_2.JK_FF_mag_1.nand2_mag_4.IN2 VSS.t142 VSS.t141 nfet_03v3 ad=0.114p pd=0.96u as=0.194p ps=1.76u w=0.44u l=0.28u
X150 VDD CLK_div_3_mag_2.JK_FF_mag_1.nand2_mag_3.IN1 CLK_div_3_mag_2.JK_FF_mag_1.nand2_mag_1.IN2 VDD.t216 pfet_03v3 ad=0.352p pd=2.48u as=0.208p ps=1.32u w=0.8u l=0.28u
X151 CLK_div_3_mag_2.Q1 CLK_div_3_mag_2.JK_FF_mag_1.nand2_mag_1.IN2 VDD.t361 VDD.t360 pfet_03v3 ad=0.208p pd=1.32u as=0.352p ps=2.48u w=0.8u l=0.28u
X152 CLK_div_3_mag_2.JK_FF_mag_1.K CLK_div_3_mag_2.JK_FF_mag_0.nand2_mag_4.IN2 VDD.t428 VDD.t427 pfet_03v3 ad=0.208p pd=1.32u as=0.352p ps=2.48u w=0.8u l=0.28u
X153 CLK_div_3_mag_0.JK_FF_mag_1.nand3_mag_2.OUT CLK_div_3_mag_0.Q1 VDD.t379 VDD.t378 pfet_03v3 ad=0.352p pd=2.48u as=0.208p ps=1.32u w=0.8u l=0.28u
X154 CLK_div_3_mag_2.JK_FF_mag_1.nand3_mag_1.OUT CLK_div_3_mag_2.JK_FF_mag_1.nand3_mag_2.OUT VDD.t299 VDD.t298 pfet_03v3 ad=0.208p pd=1.32u as=0.352p ps=2.48u w=0.8u l=0.28u
X155 VDD JK_FF_mag_1.nand3_mag_2.OUT JK_FF_mag_1.nand3_mag_1.OUT VDD.t339 pfet_03v3 ad=0.352p pd=2.48u as=0.208p ps=1.32u w=0.8u l=0.28u
X156 a_11307_2697# CLK_div_3_mag_2.or_2_mag_0.IN2 VDD.t10 VDD.t9 pfet_03v3 ad=0.416p pd=2.12u as=0.704p ps=4.08u w=1.6u l=0.28u
X157 CLK_div_3_mag_0.JK_FF_mag_1.QB CLK_div_3_mag_0.Q1 a_2640_257# VSS.t234 nfet_03v3 ad=0.194p pd=1.76u as=0.114p ps=0.96u w=0.44u l=0.28u
X158 VDD CLK_div_3_mag_0.Q0 CLK_div_3_mag_0.JK_FF_mag_1.K.t0 VDD.t13 pfet_03v3 ad=0.352p pd=2.48u as=0.208p ps=1.32u w=0.8u l=0.28u
X159 CLK_div_3_mag_0.JK_FF_mag_0.nand3_mag_2.OUT VDD.t284 VDD.t286 VDD.t285 pfet_03v3 ad=0.208p pd=1.32u as=0.352p ps=2.48u w=0.8u l=0.28u
X160 VDD CLK_div_3_mag_1.Q0.t4 CLK_div_3_mag_1.JK_FF_mag_0.nand3_mag_2.OUT VDD.t107 pfet_03v3 ad=0.208p pd=1.32u as=0.352p ps=2.48u w=0.8u l=0.28u
X161 JK_FF_mag_0.nand3_mag_2.OUT JK_FF_mag_0.CLK VDD.t23 VDD.t22 pfet_03v3 ad=0.208p pd=1.32u as=0.208p ps=1.32u w=0.8u l=0.28u
X162 VDD JK_FF_mag_1.nand2_mag_4.IN2 JK_FF_mag_1.QB VDD.t231 pfet_03v3 ad=0.352p pd=2.48u as=0.208p ps=1.32u w=0.8u l=0.28u
X163 CLK_div_3_mag_0.JK_FF_mag_1.nand3_mag_1.IN1 CLK_div_3_mag_0.JK_FF_mag_1.nand3_mag_0.OUT VDD.t49 VDD.t48 pfet_03v3 ad=0.208p pd=1.32u as=0.352p ps=2.48u w=0.8u l=0.28u
X164 a_2107_4955# CLK_div_3_mag_1.Q0.t5 CLK_div_3_mag_1.JK_FF_mag_0.nand3_mag_2.OUT VSS.t62 nfet_03v3 ad=0.172p pd=1.18u as=0.29p ps=2.2u w=0.66u l=0.28u
X165 VDD JK_FF_mag_0.nand3_mag_1.OUT JK_FF_mag_0.nand2_mag_4.IN2 VDD.t225 pfet_03v3 ad=0.352p pd=2.48u as=0.208p ps=1.32u w=0.8u l=0.28u
X166 VSS JK_FF_mag_1.nand3_mag_2.OUT a_7762_3928# VSS.t30 nfet_03v3 ad=0.29p pd=2.2u as=0.172p ps=1.18u w=0.66u l=0.28u
X167 VDD RST.t5 CLK_div_3_mag_0.JK_FF_mag_1.nand3_mag_1.OUT VDD.t65 pfet_03v3 ad=0.208p pd=1.32u as=0.208p ps=1.32u w=0.8u l=0.28u
X168 VSS JK_FF_mag_1.nand2_mag_4.IN2 a_6474_3928# VSS.t77 nfet_03v3 ad=0.194p pd=1.76u as=0.114p ps=0.96u w=0.44u l=0.28u
X169 CLK_div_3_mag_0.JK_FF_mag_1.nand3_mag_0.OUT CLK_div_3_mag_0.JK_FF_mag_1.QB VDD.t388 VDD.t387 pfet_03v3 ad=0.352p pd=2.48u as=0.208p ps=1.32u w=0.8u l=0.28u
X170 VDD CLK_div_3_mag_0.JK_FF_mag_1.nand2_mag_3.IN1 CLK_div_3_mag_0.JK_FF_mag_1.nand2_mag_1.IN2 VDD.t314 pfet_03v3 ad=0.352p pd=2.48u as=0.208p ps=1.32u w=0.8u l=0.28u
X171 CLK_div_3_mag_2.JK_FF_mag_1.nand2_mag_1.IN2 CLK_div_3_mag_2.JK_FF_mag_1.nand3_mag_1.IN1 VDD.t413 VDD.t412 pfet_03v3 ad=0.208p pd=1.32u as=0.352p ps=2.48u w=0.8u l=0.28u
X172 VSS VDD.t441 a_11661_5045# VSS.t171 nfet_03v3 ad=0.29p pd=2.2u as=0.172p ps=1.18u w=0.66u l=0.28u
X173 CLK_div_3_mag_1.JK_FF_mag_0.nand2_mag_4.IN2 CLK_div_3_mag_1.JK_FF_mag_0.nand2_mag_3.IN1 VDD.t435 VDD.t434 pfet_03v3 ad=0.208p pd=1.32u as=0.352p ps=2.48u w=0.8u l=0.28u
X174 JK_FF_mag_1.nand3_mag_1.OUT RST.t6 VDD.t64 VDD.t63 pfet_03v3 ad=0.208p pd=1.32u as=0.208p ps=1.32u w=0.8u l=0.28u
X175 a_7762_3928# RST.t7 a_7602_3928# VSS.t30 nfet_03v3 ad=0.172p pd=1.18u as=0.172p ps=1.18u w=0.66u l=0.28u
X176 JK_FF_mag_1.QB Vdiv108.t5 VDD.t196 VDD.t195 pfet_03v3 ad=0.208p pd=1.32u as=0.352p ps=2.48u w=0.8u l=0.28u
X177 CLK_div_3_mag_2.JK_FF_mag_0.nand2_mag_4.IN2 CLK_div_3_mag_2.JK_FF_mag_0.nand3_mag_1.OUT VDD.t125 VDD.t124 pfet_03v3 ad=0.208p pd=1.32u as=0.352p ps=2.48u w=0.8u l=0.28u
X178 a_819_4955# CLK_div_3_mag_1.JK_FF_mag_0.nand2_mag_3.IN1 CLK_div_3_mag_1.JK_FF_mag_0.nand2_mag_4.IN2 VSS.t282 nfet_03v3 ad=0.114p pd=0.96u as=0.194p ps=1.76u w=0.44u l=0.28u
X179 a_5657_257# CLK_div_3_mag_0.JK_FF_mag_0.nand2_mag_4.IN2 VSS.t231 VSS.t230 nfet_03v3 ad=0.114p pd=0.96u as=0.194p ps=1.76u w=0.44u l=0.28u
X180 CLK_div_3_mag_0.JK_FF_mag_1.nand2_mag_4.IN2 CLK_div_3_mag_0.JK_FF_mag_1.nand2_mag_3.IN1 a_2076_257# VSS.t191 nfet_03v3 ad=0.194p pd=1.76u as=0.114p ps=0.96u w=0.44u l=0.28u
X181 CLK_div_3_mag_1.JK_FF_mag_1.K CLK_div_3_mag_1.Q0.t6 VDD.t111 VDD.t110 pfet_03v3 ad=0.208p pd=1.32u as=0.352p ps=2.48u w=0.8u l=0.28u
X182 a_6474_3928# Vdiv108.t6 JK_FF_mag_1.QB VSS.t77 nfet_03v3 ad=0.114p pd=0.96u as=0.194p ps=1.76u w=0.44u l=0.28u
X183 a_852_2291# CLK_div_3_mag_1.Q0.t7 CLK_div_3_mag_1.or_2_mag_0.GF_INV_MAG_1.IN VDD.t112 pfet_03v3 ad=0.416p pd=2.12u as=0.704p ps=4.08u w=1.6u l=0.28u
X184 VDD CLK_div_3_mag_0.CLK.t9 CLK_div_3_mag_0.JK_FF_mag_1.nand3_mag_0.OUT VDD.t176 pfet_03v3 ad=0.208p pd=1.32u as=0.208p ps=1.32u w=0.8u l=0.28u
X185 a_11661_5045# JK_FF_mag_0.CLK a_11501_5045# VSS.t16 nfet_03v3 ad=0.172p pd=1.18u as=0.172p ps=1.18u w=0.66u l=0.28u
X186 JK_FF_mag_0.CLK CLK_div_3_mag_2.or_2_mag_0.GF_INV_MAG_1.IN VSS.t197 VSS.t196 nfet_03v3 ad=0.152p pd=1.64u as=0.152p ps=1.64u w=0.22u l=0.28u
X187 CLK_div_3_mag_0.JK_FF_mag_0.nand3_mag_1.OUT CLK_div_3_mag_0.JK_FF_mag_0.nand3_mag_2.OUT VDD.t12 VDD.t11 pfet_03v3 ad=0.208p pd=1.32u as=0.352p ps=2.48u w=0.8u l=0.28u
X188 a_255_4955# CLK_div_3_mag_1.Q0.t8 CLK_div_3_mag_1.JK_FF_mag_1.K VSS.t63 nfet_03v3 ad=0.114p pd=0.96u as=0.194p ps=1.76u w=0.44u l=0.28u
X189 VSS JK_FF_mag_0.nand3_mag_1.OUT a_10213_5045# VSS.t137 nfet_03v3 ad=0.194p pd=1.76u as=0.114p ps=0.96u w=0.44u l=0.28u
X190 a_8323_265# CLK_div_3_mag_2.JK_FF_mag_1.nand3_mag_1.OUT VSS.t99 VSS.t98 nfet_03v3 ad=0.114p pd=0.96u as=0.194p ps=1.76u w=0.44u l=0.28u
X191 a_7599_221# CLK_div_3_mag_2.JK_FF_mag_1.nand3_mag_2.OUT VSS.t180 VSS.t179 nfet_03v3 ad=0.172p pd=1.18u as=0.29p ps=2.2u w=0.66u l=0.28u
X192 CLK_div_3_mag_0.JK_FF_mag_1.nand3_mag_2.OUT CLK_div_3_mag_0.Q1 a_788_213# VSS.t233 nfet_03v3 ad=0.29p pd=2.2u as=0.172p ps=1.18u w=0.66u l=0.28u
X193 a_3645_213# VDD.t442 VSS.t175 VSS.t174 nfet_03v3 ad=0.172p pd=1.18u as=0.29p ps=2.2u w=0.66u l=0.28u
X194 VDD CLK_div_3_mag_0.JK_FF_mag_0.nand2_mag_3.IN1 CLK_div_3_mag_0.JK_FF_mag_0.nand2_mag_4.IN2 VDD.t34 pfet_03v3 ad=0.352p pd=2.48u as=0.208p ps=1.32u w=0.8u l=0.28u
X195 VDD CLK_div_3_mag_0.Q1 CLK_div_3_mag_0.and2_mag_0.GF_INV_MAG_0.IN VDD.t375 pfet_03v3 ad=0.352p pd=2.48u as=0.208p ps=1.32u w=0.8u l=0.28u
X196 a_1825_2759# CLK_div_3_mag_1.Q1.t5 CLK_div_3_mag_1.and2_mag_0.GF_INV_MAG_0.IN VSS.t158 nfet_03v3 ad=0.114p pd=0.96u as=0.194p ps=1.76u w=0.44u l=0.28u
X197 VDD CLK.t5 CLK_div_3_mag_1.and2_mag_0.GF_INV_MAG_0.IN VDD.t199 pfet_03v3 ad=0.352p pd=2.48u as=0.208p ps=1.32u w=0.8u l=0.28u
X198 a_4939_1354# CLK_div_3_mag_0.JK_FF_mag_0.nand3_mag_1.IN1 VSS.t214 VSS.t213 nfet_03v3 ad=0.114p pd=0.96u as=0.194p ps=1.76u w=0.44u l=0.28u
X199 CLK_div_3_mag_0.or_2_mag_0.IN2 CLK_div_3_mag_0.and2_mag_0.GF_INV_MAG_0.IN VDD.t241 VDD.t240 pfet_03v3 ad=0.352p pd=2.48u as=0.352p ps=2.48u w=0.8u l=0.28u
X200 a_1512_213# RST.t8 a_1352_213# VSS.t128 nfet_03v3 ad=0.172p pd=1.18u as=0.172p ps=1.18u w=0.66u l=0.28u
X201 CLK_div_3_mag_0.JK_FF_mag_1.nand3_mag_0.OUT CLK_div_3_mag_0.JK_FF_mag_1.QB a_794_1310# VSS.t238 nfet_03v3 ad=0.29p pd=2.2u as=0.172p ps=1.18u w=0.66u l=0.28u
X202 VDD CLK_div_3_mag_2.JK_FF_mag_0.nand3_mag_1.OUT CLK_div_3_mag_2.JK_FF_mag_0.nand3_mag_1.IN1 VDD.t121 pfet_03v3 ad=0.352p pd=2.48u as=0.208p ps=1.32u w=0.8u l=0.28u
X203 CLK_div_3_mag_0.or_2_mag_0.GF_INV_MAG_1.IN CLK_div_3_mag_0.or_2_mag_0.IN2 VSS.t69 VSS.t68 nfet_03v3 ad=86.8f pd=0.92u as=0.152p ps=1.64u w=0.22u l=0.28u