* NGSPICE file created from Feedback_Divider_mag_flat.ext - technology: gf180mcuC

.subckt pex_Feedback_Divider_mag VSS VDD RST Vdiv F2 F1 F0 CLK
X0 VDD90 CLK_div_90_mag_0.CLK_div_3_mag_0.JK_FF_mag_1.K.t2 CLK_div_90_mag_0.CLK_div_3_mag_0.JK_FF_mag_0.nand3_mag_0.OUT VDD90.t403 pfet_03v3 ad=0.208p pd=1.32u as=0.352p ps=2.48u w=0.8u l=0.28u
X1 Vdiv mux_8x1_ibr_0.mux_2x1_ibr_0.nand2_ibr_1.IN2 VDD.t149 VDD.t148 pfet_03v3 ad=0.208p pd=1.32u as=0.352p ps=2.48u w=0.8u l=0.28u
X2 VDD96 RST.t2 CLK_div_96_mag_0.CLK_div_3_mag_0.JK_FF_mag_0.nand3_mag_1.OUT VDD96.t294 pfet_03v3 ad=0.208p pd=1.32u as=0.208p ps=1.32u w=0.8u l=0.28u
X3 VDD93 CLK_div_93_mag_0.CLK_div_31_mag_0.JK_FF_mag_4.QB CLK_div_93_mag_0.CLK_div_31_mag_0.Q4 VDD93.t65 pfet_03v3 ad=0.352p pd=2.48u as=0.208p ps=1.32u w=0.8u l=0.28u
X4 CLK_div_90_mag_0.CLK_div_10_mag_0.nor_3_mag_0.IN3 CLK_div_90_mag_0.CLK_div_10_mag_0.Buffer_delayed_mag_0.Inverter_delayed_mag_0.IN VSS.t237 VSS.t236 nfet_03v3 ad=0.152p pd=1.64u as=0.152p ps=1.64u w=0.22u l=1u
X5 CLK_div_105_mag_0.CLK_div_10_mag_0.JK_FF_mag_3.nand3_mag_2.OUT CLK_div_105_mag_0.CLK_div_10_mag_0.Q2 a_50263_5143# VSS.t2016 nfet_03v3 ad=0.29p pd=2.2u as=0.172p ps=1.18u w=0.66u l=0.28u
X6 CLK_div_93_mag_0.CLK_div_3_mag_0.JK_FF_mag_0.nand3_mag_2.OUT CLK_div_93_mag_0.CLK_div_3_mag_0.Q0 a_39120_n10028# VSS.t1944 nfet_03v3 ad=0.29p pd=2.2u as=0.172p ps=1.18u w=0.66u l=0.28u
X7 CLK_div_93_mag_0.CLK_div_31_mag_0.JK_FF_mag_4.nand2_mag_3.IN1 CLK_div_93_mag_0.CLK_div_31_mag_0.Q3.t2 VSS.t2419 VSS.t2418 nfet_03v3 ad=0.152p pd=1.64u as=0.152p ps=1.64u w=0.22u l=0.28u
X8 CLK_div_90_mag_0.CLK_div_3_mag_0.or_2_mag_0.GF_INV_MAG_1.IN CLK_div_90_mag_0.CLK_div_3_mag_0.Q0.t3 VSS.t2422 VSS.t721 nfet_03v3 ad=86.8f pd=0.92u as=0.152p ps=1.64u w=0.22u l=0.28u
X9 CLK_div_90_mag_0.CLK_div_10_mag_0.JK_FF_mag_2.nand2_mag_3.IN1 CLK_div_90_mag_0.CLK_div_10_mag_0.Q0 VDD90.t367 VDD90.t366 pfet_03v3 ad=0.352p pd=2.48u as=0.352p ps=2.48u w=0.8u l=0.28u
X10 CLK_div_99_mag_0.CLK_DIV_11_mag_new_0.JK_FF_mag_2.nand3_mag_1.OUT CLK_div_99_mag_0.CLK_DIV_11_mag_new_0.JK_FF_mag_2.nand3_mag_1.IN1 VDD99.t381 VDD99.t380 pfet_03v3 ad=0.352p pd=2.48u as=0.208p ps=1.32u w=0.8u l=0.28u
X11 a_49276_n17599# CLK_div_110_mag_0.CLK_div_10_mag_0.JK_FF_mag_2.nand2_mag_4.IN2 VSS.t1635 VSS.t1634 nfet_03v3 ad=0.114p pd=0.96u as=0.194p ps=1.76u w=0.44u l=0.28u
X12 VDD93 CLK_div_93_mag_0.CLK_div_31_mag_0.Q1.t3 CLK_div_93_mag_0.CLK_div_31_mag_0.and_5_mag_0.and2_mag_0.GF_INV_MAG_0.IN VDD93.t449 pfet_03v3 ad=0.352p pd=2.48u as=0.208p ps=1.32u w=0.8u l=0.28u
X13 VDD100 CLK_div_100_mag_0.CLK_div_10_mag_1.JK_FF_mag_3.nand3_mag_1.IN1 CLK_div_100_mag_0.CLK_div_10_mag_1.JK_FF_mag_3.nand2_mag_1.IN2 VDD100.t289 pfet_03v3 ad=0.352p pd=2.48u as=0.208p ps=1.32u w=0.8u l=0.28u
X14 dec3x8_ibr_mag_0.and_3_ibr_5.nand3_mag_ibr_0.OUT F0.t0 VDD.t62 VDD.t61 pfet_03v3 ad=0.352p pd=2.48u as=0.208p ps=1.32u w=0.8u l=0.28u
X15 CLK_div_100_mag_0.CLK_div_10_mag_0.JK_FF_mag_0.nand3_mag_1.OUT CLK_div_100_mag_0.CLK_div_10_mag_0.JK_FF_mag_0.nand3_mag_1.IN1 a_53892_n2243# VSS.t230 nfet_03v3 ad=0.29p pd=2.2u as=0.172p ps=1.18u w=0.66u l=0.28u
X16 VSS CLK_div_100_mag_0.CLK_div_10_mag_1.Q0.t3 CLK_div_100_mag_0.CLK_div_10_mag_1.JK_FF_mag_0.nand2_mag_3.IN1 VSS.t1258 nfet_03v3 ad=0.152p pd=1.64u as=0.152p ps=1.64u w=0.22u l=0.28u
X17 CLK_div_93_mag_0.CLK_div_31_mag_0.nand_5_mag_0.and_5_mag_0.and2_mag_2.GF_INV_MAG_0.IN CLK_div_93_mag_0.CLK_div_31_mag_0.nand_5_mag_0.and_5_mag_0.and2_mag_2.IN2 VDD93.t128 VDD93.t127 pfet_03v3 ad=0.208p pd=1.32u as=0.352p ps=2.48u w=0.8u l=0.28u
X18 VSS VDD90.t471 a_30502_11196# VSS.t225 nfet_03v3 ad=0.29p pd=2.2u as=0.172p ps=1.18u w=0.66u l=0.28u
X19 CLK_div_90_mag_0.CLK_div_10_mag_0.Q0 CLK_div_90_mag_0.CLK_div_10_mag_0.JK_FF_mag_1.nand2_mag_1.IN2 VDD90.t121 VDD90.t120 pfet_03v3 ad=0.208p pd=1.32u as=0.352p ps=2.48u w=0.8u l=0.28u
X20 CLK_div_110_mag_0.CLK_div_10_mag_0.JK_FF_mag_0.nand2_mag_4.IN2 CLK_div_110_mag_0.CLK_div_10_mag_0.JK_FF_mag_0.nand3_mag_1.OUT VDD110.t4 VDD110.t3 pfet_03v3 ad=0.208p pd=1.32u as=0.352p ps=2.48u w=0.8u l=0.28u
X21 CLK_div_99_mag_0.CLK_div_3_mag_1.JK_FF_mag_0.nand2_mag_1.IN2 CLK_div_99_mag_0.CLK_div_3_mag_1.JK_FF_mag_0.nand2_mag_3.IN1 VDD99.t36 VDD99.t35 pfet_03v3 ad=0.208p pd=1.32u as=0.352p ps=2.48u w=0.8u l=0.28u
X22 VDD100 CLK_div_100_mag_0.CLK_div_10_mag_1.Buffer_delayed_mag_0.Inverter_delayed_mag_0.IN CLK_div_100_mag_0.CLK_div_10_mag_1.nor_3_mag_0.IN3 VDD100.t390 pfet_03v3 ad=0.352p pd=2.48u as=0.352p ps=2.48u w=0.8u l=1u
X23 VSS CLK_div_108_new_mag_0.CLK_div_3_mag_1.and2_mag_0.GF_INV_MAG_0.IN CLK_div_108_new_mag_0.CLK_div_3_mag_1.or_2_mag_0.IN2 VSS.t2229 nfet_03v3 ad=0.152p pd=1.64u as=0.152p ps=1.64u w=0.22u l=0.28u
X24 VDD99 CLK_div_99_mag_0.CLK_div_3_mag_0.Vdiv3.t2 CLK_div_99_mag_0.CLK_DIV_11_mag_new_0.JK_FF_mag_0.nand3_mag_2.OUT VDD99.t184 pfet_03v3 ad=0.208p pd=1.32u as=0.208p ps=1.32u w=0.8u l=0.28u
X25 VDD99 CLK_div_99_mag_0.CLK_div_3_mag_0.JK_FF_mag_0.nand3_mag_1.OUT CLK_div_99_mag_0.CLK_div_3_mag_0.JK_FF_mag_0.nand2_mag_4.IN2 VDD99.t112 pfet_03v3 ad=0.352p pd=2.48u as=0.208p ps=1.32u w=0.8u l=0.28u
X26 CLK_div_90_mag_0.CLK_div_10_mag_0.Q3 CLK_div_90_mag_0.CLK_div_10_mag_0.JK_FF_mag_2.K.t3 a_33204_6159# VSS.t1164 nfet_03v3 ad=0.194p pd=1.76u as=0.114p ps=0.96u w=0.44u l=0.28u
X27 CLK_div_96_mag_0.CLK_div_3_mag_0.JK_FF_mag_1.QB CLK_div_96_mag_0.CLK_div_3_mag_0.Q1 a_27381_n699# VSS.t2550 nfet_03v3 ad=0.194p pd=1.76u as=0.114p ps=0.96u w=0.44u l=0.28u
X28 CLK_div_100_mag_0.CLK_div_10_mag_0.JK_FF_mag_2.nand2_mag_3.IN1 CLK_div_100_mag_0.CLK_div_10_mag_0.Q0 VDD100.t462 VDD100.t461 pfet_03v3 ad=0.352p pd=2.48u as=0.352p ps=2.48u w=0.8u l=0.28u
X29 CLK_div_105_mag_0.CLK_div_10_mag_0.JK_FF_mag_1.QB CLK_div_105_mag_0.CLK_div_10_mag_0.Q0 a_46081_5187# VSS.t2120 nfet_03v3 ad=0.194p pd=1.76u as=0.114p ps=0.96u w=0.44u l=0.28u
X30 CLK_div_100_mag_0.CLK_div_10_mag_1.JK_FF_mag_3.nand3_mag_1.IN1 CLK_div_100_mag_0.CLK_div_10_mag_1.JK_FF_mag_3.nand3_mag_1.OUT VDD100.t35 VDD100.t34 pfet_03v3 ad=0.208p pd=1.32u as=0.352p ps=2.48u w=0.8u l=0.28u
X31 VDD108 VDD108.t40 CLK_div_108_new_mag_0.CLK_div_3_mag_1.JK_FF_mag_0.nand3_mag_2.OUT VDD108.t41 pfet_03v3 ad=0.352p pd=2.48u as=0.208p ps=1.32u w=0.8u l=0.28u
X32 CLK_div_105_mag_0.CLK_div_10_mag_1.JK_FF_mag_0.nand2_mag_1.IN2 CLK_div_105_mag_0.CLK_div_10_mag_1.JK_FF_mag_0.nand2_mag_3.IN1 VDD105.t34 VDD105.t33 pfet_03v3 ad=0.208p pd=1.32u as=0.352p ps=2.48u w=0.8u l=0.28u
X33 CLK_div_90_mag_0.CLK_div_10_mag_0.JK_FF_mag_3.nand3_mag_0.OUT CLK_div_90_mag_0.CLK_div_10_mag_0.JK_FF_mag_3.QB a_28495_6115# VSS.t239 nfet_03v3 ad=0.29p pd=2.2u as=0.172p ps=1.18u w=0.66u l=0.28u
X34 VDD110 CLK_div_110_mag_0.CLK_div_10_mag_0.Q3 CLK_div_110_mag_0.CLK_div_10_mag_0.JK_FF_mag_2.K.t1 VDD110.t420 pfet_03v3 ad=0.352p pd=2.48u as=0.208p ps=1.32u w=0.8u l=0.28u
X35 a_44075_6240# VDD105.t476 VSS.t1088 VSS.t1087 nfet_03v3 ad=0.172p pd=1.18u as=0.29p ps=2.2u w=0.66u l=0.28u
X36 VSS CLK_div_99_mag_0.CLK_div_3_mag_1.JK_FF_mag_0.nand3_mag_2.OUT a_31451_n17626# VSS.t1515 nfet_03v3 ad=0.29p pd=2.2u as=0.172p ps=1.18u w=0.66u l=0.28u
X37 CLK_div_99_mag_0.CLK_DIV_11_mag_new_0.JK_FF_mag_2.K CLK_div_99_mag_0.CLK_DIV_11_mag_new_0.or_2_mag_1.GF_INV_MAG_1.IN VSS.t1519 VSS.t1518 nfet_03v3 ad=0.152p pd=1.64u as=0.152p ps=1.64u w=0.22u l=0.28u
X38 a_45006_10154# RST.t3 a_44846_10154# VSS.t2082 nfet_03v3 ad=0.172p pd=1.18u as=0.172p ps=1.18u w=0.66u l=0.28u
X39 a_54751_n16684# CLK_div_110_mag_0.CLK_DIV_11_mag_new_0.JK_FF_mag_3.nand3_mag_1.OUT VSS.t2311 VSS.t2310 nfet_03v3 ad=0.114p pd=0.96u as=0.194p ps=1.76u w=0.44u l=0.28u
X40 CLK_div_108_new_mag_0.JK_FF_mag_1.QB CLK_div_108_new_mag_0.JK_FF_mag_1.Q a_51957_n6821# VSS.t2317 nfet_03v3 ad=0.194p pd=1.76u as=0.114p ps=0.96u w=0.44u l=0.28u
X41 CLK_div_108_new_mag_0.JK_FF_mag_1.nand2_mag_1.IN2 CLK_div_108_new_mag_0.JK_FF_mag_1.nand2_mag_3.IN1 a_51239_n5724# VSS.t2320 nfet_03v3 ad=0.194p pd=1.76u as=0.114p ps=0.96u w=0.44u l=0.28u
X42 a_27144_10099# CLK_div_90_mag_0.CLK_div_3_mag_0.CLK.t2 a_26984_10099# VSS.t1178 nfet_03v3 ad=0.172p pd=1.18u as=0.172p ps=1.18u w=0.66u l=0.28u
X43 VDD90 CLK_div_90_mag_0.CLK_div_3_mag_0.Q1.t3 CLK_div_90_mag_0.CLK_div_3_mag_0.JK_FF_mag_0.nand3_mag_0.OUT VDD90.t235 pfet_03v3 ad=0.352p pd=2.48u as=0.208p ps=1.32u w=0.8u l=0.28u
X44 VDD90 CLK_div_90_mag_0.CLK_div_10_mag_0.JK_FF_mag_1.nand2_mag_3.IN1 CLK_div_90_mag_0.CLK_div_10_mag_0.JK_FF_mag_1.nand2_mag_4.IN2 VDD90.t414 pfet_03v3 ad=0.352p pd=2.48u as=0.208p ps=1.32u w=0.8u l=0.28u
X45 CLK_div_90_mag_0.CLK_div_10_mag_0.JK_FF_mag_2.nand3_mag_2.OUT CLK_div_90_mag_0.CLK_div_10_mag_0.Q1 a_25472_5018# VSS.t2263 nfet_03v3 ad=0.29p pd=2.2u as=0.172p ps=1.18u w=0.66u l=0.28u
X46 CLK_div_110_mag_0.CLK_DIV_11_mag_new_0.and2_mag_3.OUT CLK_div_110_mag_0.CLK_DIV_11_mag_new_0.and2_mag_3.GF_INV_MAG_0.IN VDD110.t117 VDD110.t116 pfet_03v3 ad=0.352p pd=2.48u as=0.352p ps=2.48u w=0.8u l=0.28u
X47 a_21277_n6009# CLK_div_93_mag_0.CLK_div_31_mag_0.Q1.t4 CLK_div_93_mag_0.CLK_div_31_mag_0.JK_FF_mag_2.QB VSS.t2385 nfet_03v3 ad=0.114p pd=0.96u as=0.194p ps=1.76u w=0.44u l=0.28u
X48 a_52225_n13362# CLK_div_110_mag_0.CLK_DIV_11_mag_new_0.nor_3_mag_0.IN3 VDD110.t63 VDD110.t62 pfet_03v3 ad=0.624p pd=2.92u as=1.06p ps=5.68u w=2.4u l=0.28u
X49 VDD90 CLK_div_90_mag_0.CLK_div_10_mag_0.JK_FF_mag_0.nand3_mag_1.OUT CLK_div_90_mag_0.CLK_div_10_mag_0.JK_FF_mag_0.nand3_mag_1.IN1 VDD90.t128 pfet_03v3 ad=0.352p pd=2.48u as=0.208p ps=1.32u w=0.8u l=0.28u
X50 CLK_div_100_mag_0.CLK_div_10_mag_0.JK_FF_mag_2.nand3_mag_0.OUT CLK_div_100_mag_0.CLK_div_10_mag_0.JK_FF_mag_2.K.t3 VDD100.t248 VDD100.t247 pfet_03v3 ad=0.208p pd=1.32u as=0.352p ps=2.48u w=0.8u l=0.28u
X51 CLK_div_110_mag_0.CLK_DIV_11_mag_new_0.JK_FF_mag_0.nand2_mag_1.IN2 CLK_div_110_mag_0.CLK_DIV_11_mag_new_0.JK_FF_mag_0.nand3_mag_1.IN1 VDD110.t67 VDD110.t66 pfet_03v3 ad=0.208p pd=1.32u as=0.352p ps=2.48u w=0.8u l=0.28u
X52 a_44779_n16724# RST.t4 a_44619_n16724# VSS.t2081 nfet_03v3 ad=0.172p pd=1.18u as=0.172p ps=1.18u w=0.66u l=0.28u
X53 VSS CLK_div_90_mag_0.CLK_div_3_mag_1.JK_FF_mag_1.nand3_mag_1.OUT a_32071_11196# VSS.t484 nfet_03v3 ad=0.194p pd=1.76u as=0.114p ps=0.96u w=0.44u l=0.28u
X54 a_29801_1733# CLK_div_96_mag_0.CLK_div_3_mag_0.or_2_mag_0.IN2 VDD96.t257 VDD96.t256 pfet_03v3 ad=0.416p pd=2.12u as=0.704p ps=4.08u w=1.6u l=0.28u
X55 a_45251_n1102# CLK_div_100_mag_0.CLK_div_10_mag_0.JK_FF_mag_1.nand3_mag_1.IN1 VSS.t1800 VSS.t1799 nfet_03v3 ad=0.114p pd=0.96u as=0.194p ps=1.76u w=0.44u l=0.28u
X56 CLK_div_110_mag_0.CLK_DIV_11_mag_new_0.JK_FF_mag_3.QB CLK_div_110_mag_0.CLK_DIV_11_mag_new_0.Q0 a_55315_n16684# VSS.t1806 nfet_03v3 ad=0.194p pd=1.76u as=0.114p ps=0.96u w=0.44u l=0.28u
X57 CLK_div_93_mag_0.CLK_div_31_mag_0.JK_FF_mag_4.nand3_mag_0.OUT CLK_div_93_mag_0.CLK_div_31_mag_0.JK_FF_mag_4.QB VDD93.t64 VDD93.t63 pfet_03v3 ad=0.352p pd=2.48u as=0.208p ps=1.32u w=0.8u l=0.28u
X58 VDD90 CLK_div_90_mag_0.CLK_div_3_mag_0.CLK.t3 CLK_div_90_mag_0.CLK_div_3_mag_0.JK_FF_mag_0.nand2_mag_3.IN1 VDD90.t252 pfet_03v3 ad=0.352p pd=2.48u as=0.352p ps=2.48u w=0.8u l=0.28u
X59 a_53780_n10161# CLK_div_108_new_mag_0.CLK_div_3_mag_2.JK_FF_mag_1.nand3_mag_1.IN1 CLK_div_108_new_mag_0.CLK_div_3_mag_2.JK_FF_mag_1.nand3_mag_1.OUT VSS.t656 nfet_03v3 ad=0.172p pd=1.18u as=0.29p ps=2.2u w=0.66u l=0.28u
X60 a_24116_n1789# CLK_div_96_mag_0.JK_FF_mag_0.nand2_mag_1.IN2 VSS.t662 VSS.t661 nfet_03v3 ad=0.114p pd=0.96u as=0.194p ps=1.76u w=0.44u l=0.28u
X61 VSS CLK_div_108_new_mag_0.CLK_div_3_mag_1.JK_FF_mag_1.nand2_mag_4.IN2 a_46246_n10116# VSS.t663 nfet_03v3 ad=0.194p pd=1.76u as=0.114p ps=0.96u w=0.44u l=0.28u
X62 CLK_div_90_mag_0.CLK_div_10_mag_0.JK_FF_mag_0.nand2_mag_1.IN2 CLK_div_90_mag_0.CLK_div_10_mag_0.JK_FF_mag_0.nand3_mag_1.IN1 VDD90.t134 VDD90.t133 pfet_03v3 ad=0.208p pd=1.32u as=0.352p ps=2.48u w=0.8u l=0.28u
X63 VDD110 CLK_div_110_mag_0.CLK_div_10_mag_0.JK_FF_mag_2.nand3_mag_1.OUT CLK_div_110_mag_0.CLK_div_10_mag_0.JK_FF_mag_2.nand3_mag_1.IN1 VDD110.t382 pfet_03v3 ad=0.352p pd=2.48u as=0.208p ps=1.32u w=0.8u l=0.28u
X64 VDD100 CLK_div_100_mag_0.CLK_div_10_mag_1.CLK CLK_div_100_mag_0.CLK_div_10_mag_1.JK_FF_mag_1.nand2_mag_3.IN1 VDD100.t313 pfet_03v3 ad=0.352p pd=2.48u as=0.352p ps=2.48u w=0.8u l=0.28u
X65 a_31346_5018# VDD90.t472 VSS.t224 VSS.t223 nfet_03v3 ad=0.172p pd=1.18u as=0.29p ps=2.2u w=0.66u l=0.28u
X66 VDD108 CLK_div_108_new_mag_0.CLK_div_3_mag_2.JK_FF_mag_1.nand3_mag_1.IN1 CLK_div_108_new_mag_0.CLK_div_3_mag_2.JK_FF_mag_1.nand3_mag_1.OUT VDD108.t132 pfet_03v3 ad=0.208p pd=1.32u as=0.352p ps=2.48u w=0.8u l=0.28u
X67 a_23123_n7106# CLK_div_93_mag_0.CLK_div_31_mag_0.JK_FF_mag_2.QB CLK_div_93_mag_0.CLK_div_31_mag_0.JK_FF_mag_2.nand3_mag_0.OUT VSS.t268 nfet_03v3 ad=0.172p pd=1.18u as=0.29p ps=2.2u w=0.66u l=0.28u
X68 a_22405_n6009# CLK_div_93_mag_0.CLK_div_31_mag_0.JK_FF_mag_2.nand3_mag_1.IN1 CLK_div_93_mag_0.CLK_div_31_mag_0.JK_FF_mag_2.nand3_mag_1.OUT VSS.t905 nfet_03v3 ad=0.172p pd=1.18u as=0.29p ps=2.2u w=0.66u l=0.28u
X69 CLK_div_105_mag_0.CLK_div_10_mag_0.JK_FF_mag_0.nand2_mag_4.IN2 CLK_div_105_mag_0.CLK_div_10_mag_0.JK_FF_mag_0.nand2_mag_3.IN1 a_54568_5187# VSS.t910 nfet_03v3 ad=0.194p pd=1.76u as=0.114p ps=0.96u w=0.44u l=0.28u
X70 CLK_div_100_mag_0.CLK_div_10_mag_0.and2_mag_1.OUT CLK_div_100_mag_0.CLK_div_10_mag_0.and2_mag_1.GF_INV_MAG_0.IN VSS.t865 VSS.t864 nfet_03v3 ad=0.152p pd=1.64u as=0.152p ps=1.64u w=0.22u l=0.28u
X71 a_50441_n17599# CLK_div_110_mag_0.CLK_div_10_mag_0.Q1 a_50281_n17599# VSS.t875 nfet_03v3 ad=0.172p pd=1.18u as=0.172p ps=1.18u w=0.66u l=0.28u
X72 VDD100 CLK_div_100_mag_0.CLK_div_10_mag_0.JK_FF_mag_2.QB CLK_div_100_mag_0.CLK_div_10_mag_0.Q1 VDD100.t165 pfet_03v3 ad=0.352p pd=2.48u as=0.208p ps=1.32u w=0.8u l=0.28u
X73 VDD93 CLK_div_93_mag_0.CLK_div_31_mag_0.JK_FF_mag_2.nand3_mag_1.IN1 CLK_div_93_mag_0.CLK_div_31_mag_0.JK_FF_mag_2.nand2_mag_1.IN2 VDD93.t259 pfet_03v3 ad=0.352p pd=2.48u as=0.208p ps=1.32u w=0.8u l=0.28u
X74 CLK_div_108_new_mag_0.CLK_div_3_mag_0.JK_FF_mag_0.nand2_mag_1.IN2 CLK_div_108_new_mag_0.CLK_div_3_mag_0.JK_FF_mag_0.nand3_mag_1.IN1 VDD108.t190 VDD108.t189 pfet_03v3 ad=0.208p pd=1.32u as=0.352p ps=2.48u w=0.8u l=0.28u
X75 CLK_div_90_mag_0.CLK_div_10_mag_0.JK_FF_mag_1.nand3_mag_2.OUT CLK_div_90_mag_0.CLK_div_10_mag_0.Q0 VDD90.t365 VDD90.t364 pfet_03v3 ad=0.352p pd=2.48u as=0.208p ps=1.32u w=0.8u l=0.28u
X76 CLK_div_100_mag_0.CLK_div_10_mag_0.and2_mag_0.GF_INV_MAG_0.IN CLK_div_100_mag_0.CLK_div_10_mag_0.Q2 a_50903_n5# VSS.t1039 nfet_03v3 ad=0.194p pd=1.76u as=0.114p ps=0.96u w=0.44u l=0.28u
X77 CLK_div_96_mag_0.JK_FF_mag_2.Q CLK_div_96_mag_0.JK_FF_mag_2.nand2_mag_1.IN2 VDD96.t315 VDD96.t314 pfet_03v3 ad=0.208p pd=1.32u as=0.352p ps=2.48u w=0.8u l=0.28u
X78 a_45541_n18696# CLK_div_110_mag_0.CLK_div_10_mag_0.JK_FF_mag_1.nand3_mag_1.IN1 VSS.t2163 VSS.t2162 nfet_03v3 ad=0.114p pd=0.96u as=0.194p ps=1.76u w=0.44u l=0.28u
X79 VDD93 CLK_div_93_mag_0.CLK_div_31_mag_0.Q3.t3 CLK_div_93_mag_0.CLK_div_31_mag_0.JK_FF_mag_4.nand3_mag_2.OUT VDD93.t452 pfet_03v3 ad=0.208p pd=1.32u as=0.208p ps=1.32u w=0.8u l=0.28u
X80 CLK_div_99_mag_0.CLK_DIV_11_mag_new_0.JK_FF_mag_3.nand3_mag_0.OUT CLK_div_99_mag_0.CLK_DIV_11_mag_new_0.JK_FF_mag_3.K VDD99.t400 VDD99.t399 pfet_03v3 ad=0.208p pd=1.32u as=0.352p ps=2.48u w=0.8u l=0.28u
X81 VDD93 CLK_div_93_mag_0.CLK_div_31_mag_0.JK_FF_mag_4.nand2_mag_3.IN1 CLK_div_93_mag_0.CLK_div_31_mag_0.JK_FF_mag_4.nand2_mag_1.IN2 VDD93.t422 pfet_03v3 ad=0.352p pd=2.48u as=0.208p ps=1.32u w=0.8u l=0.28u
X82 a_33180_n17626# CLK_div_99_mag_0.CLK_div_3_mag_1.Q1.t3 CLK_div_99_mag_0.CLK_div_3_mag_1.JK_FF_mag_1.QB VSS.t852 nfet_03v3 ad=0.114p pd=0.96u as=0.194p ps=1.76u w=0.44u l=0.28u
X83 a_51165_n17599# RST.t5 a_51005_n17599# VSS.t2080 nfet_03v3 ad=0.172p pd=1.18u as=0.172p ps=1.18u w=0.66u l=0.28u
X84 VDD99 CLK_div_99_mag_0.CLK_DIV_11_mag_new_0.JK_FF_mag_1.QB CLK_div_99_mag_0.CLK_DIV_11_mag_new_0.Q2 VDD99.t440 pfet_03v3 ad=0.352p pd=2.48u as=0.208p ps=1.32u w=0.8u l=0.28u
X85 CLK_div_93_mag_0.CLK_div_3_mag_0.JK_FF_mag_0.nand2_mag_3.IN1 CLK_div_93_mag_0.CLK_div_3_mag_0.CLK VSS.t703 VSS.t702 nfet_03v3 ad=0.152p pd=1.64u as=0.152p ps=1.64u w=0.22u l=0.28u
X86 CLK_div_100_mag_0.CLK_div_10_mag_0.JK_FF_mag_2.nand3_mag_0.OUT CLK_div_100_mag_0.CLK_div_10_mag_0.JK_FF_mag_2.QB VDD100.t164 VDD100.t163 pfet_03v3 ad=0.352p pd=2.48u as=0.208p ps=1.32u w=0.8u l=0.28u
X87 CLK_div_93_mag_0.CLK_div_31_mag_0.JK_FF_mag_0.QB CLK_div_93_mag_0.CLK_div_31_mag_0.JK_FF_mag_0.nand2_mag_4.IN2 VDD93.t227 VDD93.t226 pfet_03v3 ad=0.208p pd=1.32u as=0.352p ps=2.48u w=0.8u l=0.28u
X88 CLK_div_93_mag_0.CLK_div_31_mag_0.JK_FF_mag_0.nand2_mag_1.IN2 CLK_div_93_mag_0.CLK_div_31_mag_0.JK_FF_mag_0.nand3_mag_1.IN1 VDD93.t231 VDD93.t230 pfet_03v3 ad=0.208p pd=1.32u as=0.352p ps=2.48u w=0.8u l=0.28u
X89 CLK_div_90_mag_0.CLK_div_3_mag_0.JK_FF_mag_0.nand3_mag_1.IN1 CLK_div_90_mag_0.CLK_div_3_mag_0.JK_FF_mag_0.nand3_mag_1.OUT VDD90.t286 VDD90.t285 pfet_03v3 ad=0.208p pd=1.32u as=0.352p ps=2.48u w=0.8u l=0.28u
X90 CLK_div_110_mag_0.CLK_div_10_mag_0.Q0 CLK_div_110_mag_0.CLK_div_10_mag_0.JK_FF_mag_1.QB a_46105_n18696# VSS.t1317 nfet_03v3 ad=0.194p pd=1.76u as=0.114p ps=0.96u w=0.44u l=0.28u
X91 CLK_div_96_mag_0.CLK_div_3_mag_0.JK_FF_mag_0.nand2_mag_1.IN2 CLK_div_96_mag_0.CLK_div_3_mag_0.JK_FF_mag_0.nand2_mag_3.IN1 a_29680_398# VSS.t1330 nfet_03v3 ad=0.194p pd=1.76u as=0.114p ps=0.96u w=0.44u l=0.28u
X92 CLK_div_90_mag_0.CLK_div_10_mag_0.JK_FF_mag_0.nand3_mag_0.OUT CLK_div_90_mag_0.CLK_div_10_mag_0.JK_FF_mag_0.K VDD90.t468 VDD90.t467 pfet_03v3 ad=0.208p pd=1.32u as=0.352p ps=2.48u w=0.8u l=0.28u
X93 mux_8x1_ibr_0.mux_4x1_ibr_1.mux_2x1_ibr_1.nand2_ibr_2.OUT Vdiv96.t2 a_36873_n1222# VSS.t537 nfet_03v3 ad=0.194p pd=1.76u as=0.114p ps=0.96u w=0.44u l=0.28u
X94 CLK_div_99_mag_0.CLK_DIV_11_mag_new_0.JK_FF_mag_3.nand3_mag_1.IN1 CLK_div_99_mag_0.CLK_DIV_11_mag_new_0.JK_FF_mag_3.nand3_mag_0.OUT VDD99.t402 VDD99.t401 pfet_03v3 ad=0.208p pd=1.32u as=0.352p ps=2.48u w=0.8u l=0.28u
X95 VDD100 CLK_div_100_mag_0.CLK_div_10_mag_1.nor_3_mag_0.IN3 a_43719_n120# VDD100.t108 pfet_03v3 ad=1.06p pd=5.68u as=0.624p ps=2.92u w=2.4u l=0.28u
X96 VDD99 CLK_div_99_mag_0.CLK_DIV_11_mag_new_0.JK_FF_mag_2.nand2_mag_3.IN1 CLK_div_99_mag_0.CLK_DIV_11_mag_new_0.JK_FF_mag_2.nand2_mag_4.IN2 VDD99.t225 pfet_03v3 ad=0.352p pd=2.48u as=0.208p ps=1.32u w=0.8u l=0.28u
X97 a_27227_398# CLK_div_96_mag_0.CLK_div_3_mag_0.JK_FF_mag_1.nand2_mag_1.IN2 VSS.t1401 VSS.t1400 nfet_03v3 ad=0.114p pd=0.96u as=0.194p ps=1.76u w=0.44u l=0.28u
X98 VDD90 CLK_div_90_mag_0.CLK_div_3_mag_1.or_2_mag_0.IN2 a_29087_8532# VDD90.t311 pfet_03v3 ad=0.704p pd=4.08u as=0.416p ps=2.12u w=1.6u l=0.28u
X99 VDD99 CLK_div_99_mag_0.CLK_div_3_mag_0.JK_FF_mag_1.nand2_mag_4.IN2 CLK_div_99_mag_0.CLK_div_3_mag_0.JK_FF_mag_1.QB VDD99.t230 pfet_03v3 ad=0.352p pd=2.48u as=0.208p ps=1.32u w=0.8u l=0.28u
X100 VDD110 CLK_div_110_mag_0.CLK_div_10_mag_0.JK_FF_mag_3.nand2_mag_3.IN1 CLK_div_110_mag_0.CLK_div_10_mag_0.JK_FF_mag_3.nand2_mag_1.IN2 VDD110.t130 pfet_03v3 ad=0.352p pd=2.48u as=0.208p ps=1.32u w=0.8u l=0.28u
X101 CLK_div_110_mag_0.CLK_DIV_11_mag_new_0.JK_FF_mag_0.nand3_mag_1.IN1 CLK_div_110_mag_0.CLK_DIV_11_mag_new_0.JK_FF_mag_0.nand3_mag_1.OUT a_44625_n15583# VSS.t837 nfet_03v3 ad=0.194p pd=1.76u as=0.114p ps=0.96u w=0.44u l=0.28u
X102 a_48380_6284# CLK_div_105_mag_0.CLK_div_10_mag_0.JK_FF_mag_2.nand3_mag_1.IN1 VSS.t840 VSS.t839 nfet_03v3 ad=0.114p pd=0.96u as=0.194p ps=1.76u w=0.44u l=0.28u
X103 VSS CLK_div_100_mag_0.CLK_div_10_mag_1.JK_FF_mag_2.K.t2 a_51646_1671# VSS.t532 nfet_03v3 ad=0.29p pd=2.2u as=0.172p ps=1.18u w=0.66u l=0.28u
X104 CLK_div_100_mag_0.CLK_div_10_mag_0.JK_FF_mag_2.nand3_mag_1.IN1 CLK_div_100_mag_0.CLK_div_10_mag_0.JK_FF_mag_2.nand3_mag_0.OUT VDD100.t126 VDD100.t125 pfet_03v3 ad=0.208p pd=1.32u as=0.352p ps=2.48u w=0.8u l=0.28u
X105 CLK_div_96_mag_0.JK_FF_mag_3.QB CLK_div_96_mag_0.JK_FF_mag_3.Q a_30589_n2952# VSS.t446 nfet_03v3 ad=0.194p pd=1.76u as=0.114p ps=0.96u w=0.44u l=0.28u
X106 CLK_div_93_mag_0.CLK_div_31_mag_0.JK_FF_mag_1.nand2_mag_3.IN1 CLK_div_93_mag_0.CLK_div_31_mag_0.Q2 VSS.t455 VSS.t454 nfet_03v3 ad=0.152p pd=1.64u as=0.152p ps=1.64u w=0.22u l=0.28u
X107 CLK_div_100_mag_0.CLK_div_10_mag_0.nor_3_mag_0.IN3 CLK_div_100_mag_0.CLK_div_10_mag_0.Buffer_delayed_mag_0.Inverter_delayed_mag_0.IN VDD100.t122 VDD100.t121 pfet_03v3 ad=0.352p pd=2.48u as=0.352p ps=2.48u w=0.8u l=1u
X108 CLK_div_108_new_mag_0.CLK_div_3_mag_0.JK_FF_mag_1.nand3_mag_1.OUT CLK_div_108_new_mag_0.CLK_div_3_mag_0.JK_FF_mag_1.nand3_mag_1.IN1 a_44475_n5176# VSS.t463 nfet_03v3 ad=0.29p pd=2.2u as=0.172p ps=1.18u w=0.66u l=0.28u
X109 VDD99 CLK_div_99_mag_0.CLK_div_3_mag_0.Vdiv3.t3 CLK_div_99_mag_0.CLK_DIV_11_mag_new_0.JK_FF_mag_1.nand3_mag_0.OUT VDD99.t187 pfet_03v3 ad=0.208p pd=1.32u as=0.208p ps=1.32u w=0.8u l=0.28u
X110 VDD100 CLK_div_100_mag_0.CLK_div_10_mag_1.JK_FF_mag_3.nand2_mag_4.IN2 CLK_div_100_mag_0.CLK_div_10_mag_1.JK_FF_mag_3.QB VDD100.t432 pfet_03v3 ad=0.352p pd=2.48u as=0.208p ps=1.32u w=0.8u l=0.28u
X111 a_44799_n7920# CLK_div_108_new_mag_0.CLK_div_3_mag_1.Q1.t3 CLK_div_108_new_mag_0.CLK_div_3_mag_1.and2_mag_0.GF_INV_MAG_0.IN VSS.t502 nfet_03v3 ad=0.114p pd=0.96u as=0.194p ps=1.76u w=0.44u l=0.28u
X112 VSS CLK_div_105_mag_0.CLK_div_10_mag_1.JK_FF_mag_0.nand3_mag_1.OUT a_44282_10154# VSS.t2329 nfet_03v3 ad=0.194p pd=1.76u as=0.114p ps=0.96u w=0.44u l=0.28u
X113 VDD96 CLK_div_96_mag_0.JK_FF_mag_2.Q CLK_div_96_mag_0.JK_FF_mag_2.QB VDD96.t326 pfet_03v3 ad=0.352p pd=2.48u as=0.208p ps=1.32u w=0.8u l=0.28u
X114 CLK_div_99_mag_0.CLK_DIV_11_mag_new_0.and2_mag_2.GF_INV_MAG_0.IN CLK_div_99_mag_0.CLK_DIV_11_mag_new_0.Q1 VDD99.t432 VDD99.t431 pfet_03v3 ad=0.208p pd=1.32u as=0.352p ps=2.48u w=0.8u l=0.28u
X115 CLK_div_100_mag_0.CLK_div_10_mag_0.Q0 CLK_div_100_mag_0.CLK_div_10_mag_0.JK_FF_mag_1.QB a_45815_n1102# VSS.t2248 nfet_03v3 ad=0.194p pd=1.76u as=0.114p ps=0.96u w=0.44u l=0.28u
X116 CLK_div_108_new_mag_0.CLK_div_3_mag_0.JK_FF_mag_0.nand2_mag_3.IN1 CLK_div_108_new_mag_0.CLK_div_3_mag_0.CLK.t2 VDD108.t89 VDD108.t88 pfet_03v3 ad=0.352p pd=2.48u as=0.352p ps=2.48u w=0.8u l=0.28u
X117 a_26426_11196# RST.t6 a_26266_11196# VSS.t2079 nfet_03v3 ad=0.172p pd=1.18u as=0.172p ps=1.18u w=0.66u l=0.28u
X118 CLK_div_90_mag_0.CLK_div_10_mag_0.JK_FF_mag_3.QB CLK_div_90_mag_0.CLK_div_10_mag_0.JK_FF_mag_3.nand2_mag_4.IN2 VDD90.t410 VDD90.t409 pfet_03v3 ad=0.208p pd=1.32u as=0.352p ps=2.48u w=0.8u l=0.28u
X119 CLK_div_110_mag_0.CLK_DIV_11_mag_new_0.JK_FF_mag_2.K CLK_div_110_mag_0.CLK_DIV_11_mag_new_0.or_2_mag_1.GF_INV_MAG_1.IN VDD110.t442 VDD110.t441 pfet_03v3 ad=0.352p pd=2.48u as=0.352p ps=2.48u w=0.8u l=0.28u
X120 VDD100 CLK_div_100_mag_0.CLK_div_10_mag_0.Q0 CLK_div_100_mag_0.CLK_div_10_mag_0.JK_FF_mag_1.QB VDD100.t458 pfet_03v3 ad=0.352p pd=2.48u as=0.208p ps=1.32u w=0.8u l=0.28u
X121 VDD93 VDD93.t106 CLK_div_93_mag_0.CLK_div_31_mag_0.JK_FF_mag_3.nand3_mag_2.OUT VDD93.t107 pfet_03v3 ad=0.352p pd=2.48u as=0.208p ps=1.32u w=0.8u l=0.28u
X122 CLK_div_90_mag_0.CLK_div_10_mag_0.JK_FF_mag_2.nand3_mag_1.OUT CLK_div_90_mag_0.CLK_div_10_mag_0.JK_FF_mag_2.nand3_mag_1.IN1 a_26196_5018# VSS.t1418 nfet_03v3 ad=0.29p pd=2.2u as=0.172p ps=1.18u w=0.66u l=0.28u
X123 VDD105 CLK_div_105_mag_0.CLK_div_10_mag_1.Q2.t3 CLK_div_105_mag_0.CLK_div_10_mag_1.JK_FF_mag_3.nand3_mag_2.OUT VDD105.t89 pfet_03v3 ad=0.208p pd=1.32u as=0.352p ps=2.48u w=0.8u l=0.28u
X124 VDD105 CLK_div_105_mag_0.CLK_div_10_mag_1.JK_FF_mag_1.nand3_mag_1.IN1 CLK_div_105_mag_0.CLK_div_10_mag_1.JK_FF_mag_1.nand2_mag_1.IN2 VDD105.t268 pfet_03v3 ad=0.352p pd=2.48u as=0.208p ps=1.32u w=0.8u l=0.28u
X125 CLK_div_110_mag_0.CLK_DIV_11_mag_new_0.Buffer_delayed_mag_1.Inverter_delayed_mag_0.IN CLK_div_110_mag_0.CLK_DIV_11_mag_new_0.GF_INV_MAG_1.OUT VSS.t919 VSS.t918 nfet_03v3 ad=0.152p pd=1.64u as=0.152p ps=1.64u w=0.22u l=1u
X126 VDD108 CLK_div_108_new_mag_0.CLK_div_3_mag_1.JK_FF_mag_1.nand3_mag_2.OUT CLK_div_108_new_mag_0.CLK_div_3_mag_1.JK_FF_mag_1.nand3_mag_1.OUT VDD108.t163 pfet_03v3 ad=0.352p pd=2.48u as=0.208p ps=1.32u w=0.8u l=0.28u
X127 VSS CLK_div_100_mag_0.CLK_div_10_mag_1.JK_FF_mag_2.nand3_mag_1.IN1 a_50358_1671# VSS.t929 nfet_03v3 ad=0.194p pd=1.76u as=0.114p ps=0.96u w=0.44u l=0.28u
X128 VDD99 CLK_div_99_mag_0.CLK_div_3_mag_0.JK_FF_mag_1.nand3_mag_0.OUT CLK_div_99_mag_0.CLK_div_3_mag_0.JK_FF_mag_1.nand3_mag_1.IN1 VDD99.t92 pfet_03v3 ad=0.352p pd=2.48u as=0.208p ps=1.32u w=0.8u l=0.28u
X129 VSS CLK_div_108_new_mag_0.CLK_div_3_mag_2.JK_FF_mag_0.nand3_mag_2.OUT a_50923_n10161# VSS.t939 nfet_03v3 ad=0.29p pd=2.2u as=0.172p ps=1.18u w=0.66u l=0.28u
X130 dec3x8_ibr_mag_0.and_3_ibr_1.nand3_mag_ibr_0.OUT dec3x8_ibr_mag_0.and_3_ibr_3.IN1 VDD.t14 VDD.t13 pfet_03v3 ad=0.352p pd=2.48u as=0.208p ps=1.32u w=0.8u l=0.28u
X131 a_27375_n17626# CLK_div_99_mag_0.CLK_div_3_mag_0.JK_FF_mag_1.nand2_mag_3.IN1 CLK_div_99_mag_0.CLK_div_3_mag_0.JK_FF_mag_1.nand2_mag_4.IN2 VSS.t282 nfet_03v3 ad=0.114p pd=0.96u as=0.194p ps=1.76u w=0.44u l=0.28u
X132 CLK_div_93_mag_0.CLK_div_3_mag_0.JK_FF_mag_1.nand3_mag_2.OUT CLK_div_93_mag_0.CLK_div_3_mag_0.Q1 VDD93.t119 VDD93.t118 pfet_03v3 ad=0.352p pd=2.48u as=0.208p ps=1.32u w=0.8u l=0.28u
X133 CLK_div_100_mag_0.CLK_div_10_mag_0.and2_mag_2.GF_INV_MAG_0.IN CLK_div_100_mag_0.CLK_div_10_mag_0.Q1 a_51871_n5# VSS.t886 nfet_03v3 ad=0.194p pd=1.76u as=0.114p ps=0.96u w=0.44u l=0.28u
X134 VDD93 CLK_div_93_mag_0.CLK_div_31_mag_0.JK_FF_mag_3.nand3_mag_1.OUT CLK_div_93_mag_0.CLK_div_31_mag_0.JK_FF_mag_3.nand2_mag_4.IN2 VDD93.t124 pfet_03v3 ad=0.352p pd=2.48u as=0.208p ps=1.32u w=0.8u l=0.28u
X135 VDD100 VDD100.t102 CLK_div_100_mag_0.CLK_div_10_mag_1.JK_FF_mag_3.nand3_mag_2.OUT VDD100.t103 pfet_03v3 ad=0.352p pd=2.48u as=0.208p ps=1.32u w=0.8u l=0.28u
X136 VDD99 VDD99.t52 CLK_div_99_mag_0.CLK_div_3_mag_0.JK_FF_mag_0.nand3_mag_2.OUT VDD99.t53 pfet_03v3 ad=0.352p pd=2.48u as=0.208p ps=1.32u w=0.8u l=0.28u
X137 CLK_div_93_mag_0.CLK_div_31_mag_0.JK_FF_mag_0.nand2_mag_3.IN1 CLK_div_93_mag_0.CLK_div_31_mag_0.Q1.t5 VDD93.t301 VDD93.t300 pfet_03v3 ad=0.352p pd=2.48u as=0.352p ps=2.48u w=0.8u l=0.28u
X138 a_50263_5143# CLK_div_105_mag_0.CLK_div_10_mag_0.Q1 a_50103_5143# VSS.t688 nfet_03v3 ad=0.172p pd=1.18u as=0.172p ps=1.18u w=0.66u l=0.28u
X139 CLK_div_110_mag_0.CLK_div_10_mag_0.JK_FF_mag_0.nand3_mag_0.OUT CLK_div_110_mag_0.CLK_div_10_mag_0.JK_FF_mag_0.K VDD110.t113 VDD110.t112 pfet_03v3 ad=0.208p pd=1.32u as=0.352p ps=2.48u w=0.8u l=0.28u
X140 CLK_div_93_mag_0.CLK_div_31_mag_0.Buffer_Delayed1_mag_0.Inverter_delayed_mag_3.IN CLK_div_93_mag_0.CLK_div_31_mag_0.Buffer_Delayed1_mag_0.Inverter_delayed_mag_0.IN VSS.t693 VSS.t692 nfet_03v3 ad=0.152p pd=1.64u as=0.152p ps=1.64u w=0.22u l=1u
X141 a_37237_n8887# CLK_div_93_mag_0.CLK_div_3_mag_0.JK_FF_mag_1.nand3_mag_1.IN1 VSS.t1046 VSS.t1045 nfet_03v3 ad=0.114p pd=0.96u as=0.194p ps=1.76u w=0.44u l=0.28u
X142 CLK_div_108_new_mag_0.JK_FF_mag_0.nand3_mag_0.OUT CLK_div_108_new_mag_0.JK_FF_mag_0.QB a_53255_n5765# VSS.t1048 nfet_03v3 ad=0.29p pd=2.2u as=0.172p ps=1.18u w=0.66u l=0.28u
X143 VDD96 CLK_div_96_mag_0.CLK_div_3_mag_0.JK_FF_mag_1.nand2_mag_3.IN1 CLK_div_96_mag_0.CLK_div_3_mag_0.JK_FF_mag_1.nand2_mag_4.IN2 VDD96.t105 pfet_03v3 ad=0.352p pd=2.48u as=0.208p ps=1.32u w=0.8u l=0.28u
X144 CLK_div_108_new_mag_0.JK_FF_mag_0.nand3_mag_1.OUT CLK_div_108_new_mag_0.JK_FF_mag_0.nand3_mag_1.IN1 a_53973_n6862# VSS.t1057 nfet_03v3 ad=0.29p pd=2.2u as=0.172p ps=1.18u w=0.66u l=0.28u
X145 VDD100 dec3x8_ibr_mag_0.and_3_ibr_2.nand3_mag_ibr_0.OUT VSS.t1061 VSS.t648 nfet_03v3 ad=0.152p pd=1.64u as=0.152p ps=1.64u w=0.22u l=0.28u
X146 CLK_div_110_mag_0.CLK_div_10_mag_0.JK_FF_mag_2.nand3_mag_1.OUT CLK_div_110_mag_0.CLK_div_10_mag_0.JK_FF_mag_2.nand3_mag_1.IN1 a_48148_n17599# VSS.t1999 nfet_03v3 ad=0.29p pd=2.2u as=0.172p ps=1.18u w=0.66u l=0.28u
X147 CLK_div_100_mag_0.CLK_div_10_mag_0.JK_FF_mag_2.QB CLK_div_100_mag_0.CLK_div_10_mag_0.JK_FF_mag_2.nand2_mag_4.IN2 VDD100.t147 VDD100.t146 pfet_03v3 ad=0.208p pd=1.32u as=0.352p ps=2.48u w=0.8u l=0.28u
X148 a_40818_n8887# CLK_div_93_mag_0.CLK_div_3_mag_0.JK_FF_mag_0.nand2_mag_1.IN2 VSS.t634 VSS.t633 nfet_03v3 ad=0.114p pd=0.96u as=0.194p ps=1.76u w=0.44u l=0.28u
X149 CLK_div_105_mag_0.CLK_div_10_mag_1.JK_FF_mag_1.nand3_mag_1.IN1 CLK_div_105_mag_0.CLK_div_10_mag_1.JK_FF_mag_1.nand3_mag_1.OUT VDD105.t129 VDD105.t128 pfet_03v3 ad=0.208p pd=1.32u as=0.352p ps=2.48u w=0.8u l=0.28u
X150 VDD96 CLK_div_96_mag_0.JK_FF_mag_3.Q CLK_div_96_mag_0.CLK_div_3_mag_0.JK_FF_mag_0.nand3_mag_0.OUT VDD96.t73 pfet_03v3 ad=0.208p pd=1.32u as=0.208p ps=1.32u w=0.8u l=0.28u
X151 a_47994_n18696# CLK_div_110_mag_0.CLK_div_10_mag_0.JK_FF_mag_2.nand3_mag_0.OUT VSS.t642 VSS.t641 nfet_03v3 ad=0.114p pd=0.96u as=0.194p ps=1.76u w=0.44u l=0.28u
X152 VDD108 CLK_div_108_new_mag_0.CLK_div_3_mag_2.JK_FF_mag_1.QB CLK_div_108_new_mag_0.CLK_div_3_mag_2.JK_FF_mag_1.nand3_mag_0.OUT VDD108.t123 pfet_03v3 ad=0.208p pd=1.32u as=0.352p ps=2.48u w=0.8u l=0.28u
X153 VSS CLK_div_100_mag_0.CLK_div_10_mag_1.JK_FF_mag_3.nand2_mag_4.IN2 a_46623_2768# VSS.t2323 nfet_03v3 ad=0.194p pd=1.76u as=0.114p ps=0.96u w=0.44u l=0.28u
X154 VDD mux_8x1_ibr_0.mux_4x1_ibr_0.mux_2x1_ibr_1.nand2_ibr_2.OUT mux_8x1_ibr_0.mux_4x1_ibr_0.mux_2x1_ibr_2.I1 VDD.t150 pfet_03v3 ad=0.352p pd=2.48u as=0.208p ps=1.32u w=0.8u l=0.28u
X155 a_50922_1671# CLK_div_100_mag_0.CLK_div_10_mag_1.JK_FF_mag_2.nand3_mag_1.OUT CLK_div_100_mag_0.CLK_div_10_mag_1.JK_FF_mag_2.nand3_mag_1.IN1 VSS.t2185 nfet_03v3 ad=0.114p pd=0.96u as=0.194p ps=1.76u w=0.44u l=0.28u
X156 CLK_div_110_mag_0.CLK_DIV_11_mag_new_0.JK_FF_mag_1.QB CLK_div_110_mag_0.CLK_DIV_11_mag_new_0.Q2 a_49042_n16682# VSS.t2190 nfet_03v3 ad=0.194p pd=1.76u as=0.114p ps=0.96u w=0.44u l=0.28u
X157 a_54866_n1102# CLK_div_100_mag_0.CLK_div_10_mag_0.JK_FF_mag_0.nand2_mag_1.IN2 VSS.t2194 VSS.t2193 nfet_03v3 ad=0.114p pd=0.96u as=0.194p ps=1.76u w=0.44u l=0.28u
X158 a_32009_n18723# CLK_div_99_mag_0.CLK_div_3_mag_1.JK_FF_mag_1.K.t2 CLK_div_99_mag_0.CLK_div_3_mag_1.JK_FF_mag_0.nand3_mag_0.OUT VSS.t2304 nfet_03v3 ad=0.172p pd=1.18u as=0.29p ps=2.2u w=0.66u l=0.28u
X159 a_43831_7266# CLK_div_105_mag_0.CLK_div_10_mag_1.and2_mag_0.OUT a_43671_7266# VDD105.t440 pfet_03v3 ad=0.624p pd=2.92u as=0.624p ps=2.92u w=2.4u l=0.28u