* NGSPICE file created from CLK_div_31_mag_flat.ext - technology: gf180mcuC

.subckt pex_CLK_div_31_mag VSS VDD Q0 Q1 Q2 Q3 Q4 Vdiv31 RST CLK
X0 a_2069_4071# Q0.t3 a_1909_4071# VSS.t142 nfet_03v3 ad=0.172p pd=1.18u as=0.172p ps=1.18u w=0.66u l=0.28u
X1 JK_FF_mag_3.nand2_mag_4.IN2 JK_FF_mag_3.nand2_mag_3.IN1 VDD.t213 VDD.t212 pfet_03v3 ad=0.208p pd=1.32u as=0.352p ps=2.48u w=0.8u l=0.28u
X2 VDD VDD.t40 JK_FF_mag_3.nand3_mag_2.OUT VDD.t41 pfet_03v3 ad=0.352p pd=2.48u as=0.208p ps=1.32u w=0.8u l=0.28u
X3 Buffer_Delayed1_mag_0.Inverter_delayed_mag_0.IN Buffer_Delayed1_mag_0.Inverter_delayed_mag_2.IN VSS.t172 VSS.t171 nfet_03v3 ad=0.152p pd=1.64u as=0.152p ps=1.64u w=0.22u l=1u
X4 a_1185_4071# JK_FF_mag_2.nand3_mag_1.IN1 JK_FF_mag_2.nand3_mag_1.OUT VSS.t49 nfet_03v3 ad=0.172p pd=1.18u as=0.29p ps=2.2u w=0.66u l=0.28u
X5 VDD JK_FF_mag_2.nand2_mag_4.IN2 JK_FF_mag_2.QB VDD.t283 pfet_03v3 ad=0.352p pd=2.48u as=0.208p ps=1.32u w=0.8u l=0.28u
X6 JK_FF_mag_3.nand3_mag_1.OUT RST.t2 VDD.t153 VDD.t152 pfet_03v3 ad=0.208p pd=1.32u as=0.208p ps=1.32u w=0.8u l=0.28u
X7 VSS JK_FF_mag_3.nand3_mag_2.OUT a_4405_4070# VSS.t27 nfet_03v3 ad=0.29p pd=2.2u as=0.172p ps=1.18u w=0.66u l=0.28u
X8 JK_FF_mag_2.nand2_mag_4.IN2 JK_FF_mag_2.nand2_mag_3.IN1 VDD.t5 VDD.t4 pfet_03v3 ad=0.208p pd=1.32u as=0.352p ps=2.48u w=0.8u l=0.28u
X9 nand_5_mag_0.and_5_mag_0.and2_mag_1.GF_INV_MAG_0.IN Q2.t3 a_7993_3052# VSS.t99 nfet_03v3 ad=0.194p pd=1.76u as=0.114p ps=0.96u w=0.44u l=0.28u
X10 Buffer_Delayed1_mag_0.Inverter_delayed_mag_6.IN Buffer_Delayed1_mag_0.Inverter_delayed_mag_5.IN VDD.t92 VDD.t91 pfet_03v3 ad=0.352p pd=2.48u as=0.352p ps=2.48u w=0.8u l=1u
X11 VSS JK_FF_mag_2.nand3_mag_1.OUT a_621_4071# VSS.t64 nfet_03v3 ad=0.194p pd=1.76u as=0.114p ps=0.96u w=0.44u l=0.28u
X12 VDD Q3.t3 and_5_mag_0.and2_mag_1.GF_INV_MAG_0.IN VDD.t165 pfet_03v3 ad=0.352p pd=2.48u as=0.208p ps=1.32u w=0.8u l=0.28u
X13 nand_5_mag_0.and_5_mag_0.and2_mag_2.IN2 nand_5_mag_0.and_5_mag_0.and2_mag_1.GF_INV_MAG_0.IN VSS.t189 VSS.t188 nfet_03v3 ad=0.152p pd=1.64u as=0.152p ps=1.64u w=0.22u l=0.28u
X14 VDD Q3.t4 JK_FF_mag_4.nand3_mag_0.OUT VDD.t168 pfet_03v3 ad=0.208p pd=1.32u as=0.208p ps=1.32u w=0.8u l=0.28u
X15 JK_FF_mag_4.QB Q4.t3 a_8642_248# VSS.t209 nfet_03v3 ad=0.194p pd=1.76u as=0.114p ps=0.96u w=0.44u l=0.28u
X16 and_5_mag_0.and2_mag_2.IN2 and_5_mag_0.and2_mag_1.GF_INV_MAG_0.IN VDD.t309 VDD.t308 pfet_03v3 ad=0.352p pd=2.48u as=0.352p ps=2.48u w=0.8u l=0.28u
X17 or_2_mag_0.GF_INV_MAG_1.IN or_2_mag_0.IN1 a_11530_2405# VDD.t204 pfet_03v3 ad=0.704p pd=4.08u as=0.416p ps=2.12u w=1.6u l=0.28u
X18 VDD JK_FF_mag_4.nand3_mag_1.OUT JK_FF_mag_4.nand3_mag_1.IN1 VDD.t137 pfet_03v3 ad=0.352p pd=2.48u as=0.208p ps=1.32u w=0.8u l=0.28u
X19 JK_FF_mag_4.nand2_mag_1.IN2 JK_FF_mag_4.nand3_mag_1.IN1 VDD.t128 VDD.t127 pfet_03v3 ad=0.208p pd=1.32u as=0.352p ps=2.48u w=0.8u l=0.28u
X20 JK_FF_mag_1.nand3_mag_0.OUT JK_FF_mag_1.QB a_3724_1302# VSS.t81 nfet_03v3 ad=0.29p pd=2.2u as=0.172p ps=1.18u w=0.66u l=0.28u
X21 a_516_196# VDD.t362 VSS.t146 VSS.t145 nfet_03v3 ad=0.172p pd=1.18u as=0.29p ps=2.2u w=0.66u l=0.28u
X22 VDD RST.t3 JK_FF_mag_4.nand3_mag_1.OUT VDD.t154 pfet_03v3 ad=0.208p pd=1.32u as=0.208p ps=1.32u w=0.8u l=0.28u
X23 VDD Q3.t5 JK_FF_mag_1.QB VDD.t171 pfet_03v3 ad=0.352p pd=2.48u as=0.208p ps=1.32u w=0.8u l=0.28u
X24 JK_FF_mag_4.nand2_mag_3.IN1 Q3.t6 VDD.t175 VDD.t174 pfet_03v3 ad=0.352p pd=2.48u as=0.352p ps=2.48u w=0.8u l=0.28u
X25 a_5416_1346# JK_FF_mag_1.nand2_mag_1.IN2 VSS.t220 VSS.t219 nfet_03v3 ad=0.114p pd=0.96u as=0.194p ps=1.76u w=0.44u l=0.28u
X26 JK_FF_mag_2.QB Q1.t3 VDD.t265 VDD.t264 pfet_03v3 ad=0.208p pd=1.32u as=0.352p ps=2.48u w=0.8u l=0.28u
X27 nand_5_mag_0.and_5_mag_0.and2_mag_2.GF_INV_MAG_0.IN nand_5_mag_0.and_5_mag_0.and2_mag_2.IN2 VDD.t56 VDD.t55 pfet_03v3 ad=0.208p pd=1.32u as=0.352p ps=2.48u w=0.8u l=0.28u
X28 JK_FF_mag_0.nand2_mag_1.IN2 JK_FF_mag_0.nand2_mag_3.IN1 a_1810_1337# VSS.t71 nfet_03v3 ad=0.194p pd=1.76u as=0.114p ps=0.96u w=0.44u l=0.28u
X29 JK_FF_mag_4.nand3_mag_1.IN1 JK_FF_mag_4.nand3_mag_0.OUT VDD.t1 VDD.t0 pfet_03v3 ad=0.208p pd=1.32u as=0.352p ps=2.48u w=0.8u l=0.28u
X30 or_2_mag_0.IN1 Buffer_Delayed1_mag_0.Inverter_delayed_mag_7.IN VSS.t197 VSS.t196 nfet_03v3 ad=0.152p pd=1.64u as=0.152p ps=1.64u w=0.22u l=1u
X31 JK_FF_mag_4.nand2_mag_4.IN2 JK_FF_mag_4.nand2_mag_3.IN1 a_8078_248# VSS.t216 nfet_03v3 ad=0.194p pd=1.76u as=0.114p ps=0.96u w=0.44u l=0.28u
X32 JK_FF_mag_0.nand3_mag_1.OUT JK_FF_mag_0.nand3_mag_1.IN1 a_1400_196# VSS.t111 nfet_03v3 ad=0.29p pd=2.2u as=0.172p ps=1.18u w=0.66u l=0.28u
X33 VDD Q2.t4 JK_FF_mag_0.QB.t0 VDD.t339 pfet_03v3 ad=0.352p pd=2.48u as=0.208p ps=1.32u w=0.8u l=0.28u
X34 VDD JK_FF_mag_4.nand2_mag_3.IN1 JK_FF_mag_4.nand2_mag_1.IN2 VDD.t325 pfet_03v3 ad=0.352p pd=2.48u as=0.208p ps=1.32u w=0.8u l=0.28u
X35 a_5570_249# JK_FF_mag_1.nand2_mag_4.IN2 VSS.t214 VSS.t213 nfet_03v3 ad=0.114p pd=0.96u as=0.194p ps=1.76u w=0.44u l=0.28u
X36 a_6796_1301# Q3.t7 a_6636_1301# VSS.t87 nfet_03v3 ad=0.172p pd=1.18u as=0.172p ps=1.18u w=0.66u l=0.28u
X37 JK_FF_mag_1.nand3_mag_1.OUT JK_FF_mag_1.nand3_mag_2.OUT VDD.t71 VDD.t70 pfet_03v3 ad=0.208p pd=1.32u as=0.352p ps=2.48u w=0.8u l=0.28u
X38 VDD Q3.t8 nand_5_mag_0.and_5_mag_0.and2_mag_2.GF_INV_MAG_0.IN VDD.t176 pfet_03v3 ad=0.352p pd=2.48u as=0.208p ps=1.32u w=0.8u l=0.28u
X39 VDD JK_FF_mag_0.nand3_mag_1.OUT JK_FF_mag_0.nand3_mag_1.IN1 VDD.t78 pfet_03v3 ad=0.352p pd=2.48u as=0.208p ps=1.32u w=0.8u l=0.28u
X40 Buffer_Delayed1_mag_0.Inverter_delayed_mag_2.IN Buffer_Delayed1_mag_0.Inverter_delayed_mag_1.IN VSS.t23 VSS.t22 nfet_03v3 ad=0.152p pd=1.64u as=0.152p ps=1.64u w=0.22u l=1u
X41 a_7514_204# RST.t4 a_7354_204# VSS.t82 nfet_03v3 ad=0.172p pd=1.18u as=0.172p ps=1.18u w=0.66u l=0.28u
X42 VDD Q1.t4 JK_FF_mag_0.nand3_mag_2.OUT VDD.t266 pfet_03v3 ad=0.208p pd=1.32u as=0.208p ps=1.32u w=0.8u l=0.28u
X43 a_8944_3063# nand_5_mag_0.and_5_mag_0.and2_mag_2.IN2 VSS.t17 VSS.t16 nfet_03v3 ad=0.114p pd=0.96u as=0.194p ps=1.76u w=0.44u l=0.28u
X44 JK_FF_mag_0.nand2_mag_1.IN2 JK_FF_mag_0.nand3_mag_1.IN1 VDD.t203 VDD.t202 pfet_03v3 ad=0.208p pd=1.32u as=0.352p ps=2.48u w=0.8u l=0.28u
X45 a_4399_2973# JK_FF_mag_3.nand3_mag_1.OUT JK_FF_mag_3.nand3_mag_1.IN1 VSS.t21 nfet_03v3 ad=0.114p pd=0.96u as=0.194p ps=1.76u w=0.44u l=0.28u
X46 VDD JK_FF_mag_0.QB.t3 Q2.t1 VDD.t245 pfet_03v3 ad=0.352p pd=2.48u as=0.208p ps=1.32u w=0.8u l=0.28u
X47 a_5123_2973# CLK.t0 a_4963_2973# VSS.t54 nfet_03v3 ad=0.172p pd=1.18u as=0.172p ps=1.18u w=0.66u l=0.28u
X48 JK_FF_mag_0.nand2_mag_3.IN1 Q1.t5 VDD.t270 VDD.t269 pfet_03v3 ad=0.352p pd=2.48u as=0.352p ps=2.48u w=0.8u l=0.28u
X49 a_2528_240# JK_FF_mag_0.nand2_mag_4.IN2 VSS.t97 VSS.t96 nfet_03v3 ad=0.114p pd=0.96u as=0.194p ps=1.76u w=0.44u l=0.28u
X50 VDD Q3.t9 JK_FF_mag_4.nand3_mag_2.OUT VDD.t179 pfet_03v3 ad=0.208p pd=1.32u as=0.208p ps=1.32u w=0.8u l=0.28u
X51 JK_FF_mag_1.nand2_mag_4.IN2 JK_FF_mag_1.nand3_mag_1.OUT VDD.t144 VDD.t143 pfet_03v3 ad=0.208p pd=1.32u as=0.352p ps=2.48u w=0.8u l=0.28u
X52 VDD JK_FF_mag_0.nand2_mag_3.IN1 JK_FF_mag_0.nand2_mag_4.IN2 VDD.t132 pfet_03v3 ad=0.352p pd=2.48u as=0.208p ps=1.32u w=0.8u l=0.28u
X53 VSS CLK.t1 JK_FF_mag_3.nand2_mag_3.IN1 VSS.t58 nfet_03v3 ad=0.152p pd=1.64u as=0.152p ps=1.64u w=0.22u l=0.28u
X54 nand_5_mag_0.and_5_mag_0.and2_mag_2.GF_INV_MAG_0.IN Q3.t10 a_8944_3063# VSS.t16 nfet_03v3 ad=0.194p pd=1.76u as=0.114p ps=0.96u w=0.44u l=0.28u
X55 JK_FF_mag_0.nand3_mag_0.OUT JK_FF_mag_0.QB.t4 VDD.t249 VDD.t248 pfet_03v3 ad=0.352p pd=2.48u as=0.208p ps=1.32u w=0.8u l=0.28u
X56 VDD Buffer_Delayed1_mag_0.Inverter_delayed_mag_8.IN Buffer_Delayed1_mag_0.Inverter_delayed_mag_1.IN VDD.t300 pfet_03v3 ad=0.352p pd=2.48u as=0.352p ps=2.48u w=0.8u l=1u
X57 and_5_mag_0.and2_mag_1.GF_INV_MAG_0.IN Q3.t11 a_7994_3809# VSS.t88 nfet_03v3 ad=0.194p pd=1.76u as=0.114p ps=0.96u w=0.44u l=0.28u
X58 Q2 JK_FF_mag_0.nand2_mag_1.IN2 VDD.t119 VDD.t118 pfet_03v3 ad=0.208p pd=1.32u as=0.352p ps=2.48u w=0.8u l=0.28u
X59 Buffer_Delayed1_mag_0.Inverter_delayed_mag_7.IN Buffer_Delayed1_mag_0.Inverter_delayed_mag_6.IN VSS.t174 VSS.t173 nfet_03v3 ad=0.152p pd=1.64u as=0.152p ps=1.64u w=0.22u l=1u
X60 VDD Buffer_Delayed1_mag_0.Inverter_delayed_mag_13.IN Buffer_Delayed1_mag_0.Inverter_delayed_mag_12.IN VDD.t64 pfet_03v3 ad=0.352p pd=2.48u as=0.352p ps=2.48u w=0.8u l=1u
X61 a_4282_205# JK_FF_mag_1.nand3_mag_2.OUT VSS.t31 VSS.t30 nfet_03v3 ad=0.172p pd=1.18u as=0.29p ps=2.2u w=0.66u l=0.28u
X62 VDD JK_FF_mag_1.nand2_mag_3.IN1 JK_FF_mag_1.nand2_mag_1.IN2 VDD.t88 pfet_03v3 ad=0.352p pd=2.48u as=0.208p ps=1.32u w=0.8u l=0.28u
X63 VDD Q1.t6 JK_FF_mag_0.nand3_mag_0.OUT VDD.t271 pfet_03v3 ad=0.208p pd=1.32u as=0.208p ps=1.32u w=0.8u l=0.28u
X64 VDD Q2.t5 JK_FF_mag_1.nand3_mag_0.OUT VDD.t342 pfet_03v3 ad=0.208p pd=1.32u as=0.208p ps=1.32u w=0.8u l=0.28u
X65 VSS Buffer_Delayed1_mag_0.Inverter_delayed_mag_8.IN Buffer_Delayed1_mag_0.Inverter_delayed_mag_1.IN VSS.t202 nfet_03v3 ad=0.152p pd=1.64u as=0.152p ps=1.64u w=0.22u l=1u
X66 a_1240_196# JK_FF_mag_0.nand3_mag_2.OUT VSS.t79 VSS.t78 nfet_03v3 ad=0.172p pd=1.18u as=0.29p ps=2.2u w=0.66u l=0.28u
X67 VSS JK_FF_mag_3.nand3_mag_1.OUT a_3681_4070# VSS.t18 nfet_03v3 ad=0.194p pd=1.76u as=0.114p ps=0.96u w=0.44u l=0.28u
X68 VDD Q1.t7 nand_5_mag_0.and_5_mag_0.and2_mag_3.GF_INV_MAG_0.IN VDD.t274 pfet_03v3 ad=0.352p pd=2.48u as=0.208p ps=1.32u w=0.8u l=0.28u
X69 nand_5_mag_0.GF_INV_MAG_0.IN nand_5_mag_0.and_5_mag_0.and2_mag_3.GF_INV_MAG_0.IN VDD.t336 VDD.t335 pfet_03v3 ad=0.352p pd=2.48u as=0.352p ps=2.48u w=0.8u l=0.28u
X70 VSS Buffer_Delayed1_mag_0.Inverter_delayed_mag_13.IN Buffer_Delayed1_mag_0.Inverter_delayed_mag_12.IN VSS.t24 nfet_03v3 ad=0.152p pd=1.64u as=0.152p ps=1.64u w=0.22u l=1u
X71 JK_FF_mag_1.nand3_mag_2.OUT VDD.t37 VDD.t39 VDD.t38 pfet_03v3 ad=0.208p pd=1.32u as=0.352p ps=2.48u w=0.8u l=0.28u
X72 JK_FF_mag_3.QB Q0.t4 VDD.t244 VDD.t243 pfet_03v3 ad=0.208p pd=1.32u as=0.352p ps=2.48u w=0.8u l=0.28u
X73 VDD JK_FF_mag_2.nand3_mag_0.OUT JK_FF_mag_2.nand3_mag_1.IN1 VDD.t52 pfet_03v3 ad=0.352p pd=2.48u as=0.208p ps=1.32u w=0.8u l=0.28u
X74 JK_FF_mag_1.nand2_mag_3.IN1 Q2.t6 VDD.t346 VDD.t345 pfet_03v3 ad=0.352p pd=2.48u as=0.352p ps=2.48u w=0.8u l=0.28u
X75 JK_FF_mag_1.QB Q3.t12 a_5570_249# VSS.t89 nfet_03v3 ad=0.194p pd=1.76u as=0.114p ps=0.96u w=0.44u l=0.28u
X76 JK_FF_mag_0.nand2_mag_4.IN2 JK_FF_mag_0.nand3_mag_1.OUT VDD.t77 VDD.t76 pfet_03v3 ad=0.208p pd=1.32u as=0.352p ps=2.48u w=0.8u l=0.28u
X77 a_7924_1345# JK_FF_mag_4.nand3_mag_1.IN1 VSS.t69 VSS.t68 nfet_03v3 ad=0.114p pd=0.96u as=0.194p ps=1.76u w=0.44u l=0.28u
X78 JK_FF_mag_4.nand3_mag_1.IN1 JK_FF_mag_4.nand3_mag_1.OUT a_7360_1345# VSS.t74 nfet_03v3 ad=0.194p pd=1.76u as=0.114p ps=0.96u w=0.44u l=0.28u
X79 a_4969_4070# Q0.t5 JK_FF_mag_3.nand3_mag_2.OUT VSS.t141 nfet_03v3 ad=0.172p pd=1.18u as=0.29p ps=2.2u w=0.66u l=0.28u
X80 JK_FF_mag_3.nand3_mag_2.OUT CLK.t2 VDD.t109 VDD.t108 pfet_03v3 ad=0.208p pd=1.32u as=0.208p ps=1.32u w=0.8u l=0.28u
X81 VDD JK_FF_mag_2.QB JK_FF_mag_2.nand3_mag_0.OUT VDD.t207 pfet_03v3 ad=0.208p pd=1.32u as=0.352p ps=2.48u w=0.8u l=0.28u
X82 JK_FF_mag_1.nand3_mag_0.OUT VDD.t34 VDD.t36 VDD.t35 pfet_03v3 ad=0.208p pd=1.32u as=0.352p ps=2.48u w=0.8u l=0.28u
X83 a_6790_204# Q3.t13 a_6630_204# VSS.t90 nfet_03v3 ad=0.172p pd=1.18u as=0.172p ps=1.18u w=0.66u l=0.28u
X84 Buffer_Delayed1_mag_0.Inverter_delayed_mag_5.IN Buffer_Delayed1_mag_0.Inverter_delayed_mag_4.IN VDD.t223 VDD.t222 pfet_03v3 ad=0.352p pd=2.48u as=0.352p ps=2.48u w=0.8u l=1u
X85 VSS JK_FF_mag_3.nand2_mag_4.IN2 a_3117_4070# VSS.t121 nfet_03v3 ad=0.194p pd=1.76u as=0.114p ps=0.96u w=0.44u l=0.28u
X86 a_3681_4070# JK_FF_mag_3.nand2_mag_3.IN1 JK_FF_mag_3.nand2_mag_4.IN2 VSS.t117 nfet_03v3 ad=0.114p pd=0.96u as=0.194p ps=1.76u w=0.44u l=0.28u
X87 VSS VDD.t363 a_5129_4070# VSS.t147 nfet_03v3 ad=0.29p pd=2.2u as=0.172p ps=1.18u w=0.66u l=0.28u
X88 and_5_mag_0.and2_mag_2.IN2 and_5_mag_0.and2_mag_1.GF_INV_MAG_0.IN VSS.t208 VSS.t207 nfet_03v3 ad=0.152p pd=1.64u as=0.152p ps=1.64u w=0.22u l=0.28u
X89 VDD VDD.t30 JK_FF_mag_2.nand3_mag_0.OUT VDD.t31 pfet_03v3 ad=0.352p pd=2.48u as=0.208p ps=1.32u w=0.8u l=0.28u
X90 RST nand_5_mag_0.GF_INV_MAG_0.IN VDD.t358 VDD.t357 pfet_03v3 ad=0.352p pd=2.48u as=0.352p ps=2.48u w=0.8u l=0.28u
X91 VDD RST.t5 JK_FF_mag_1.nand3_mag_1.OUT VDD.t157 pfet_03v3 ad=0.208p pd=1.32u as=0.208p ps=1.32u w=0.8u l=0.28u
X92 VDD JK_FF_mag_3.nand3_mag_1.IN1 JK_FF_mag_3.nand3_mag_1.OUT VDD.t102 pfet_03v3 ad=0.208p pd=1.32u as=0.352p ps=2.48u w=0.8u l=0.28u
X93 VDD JK_FF_mag_3.nand3_mag_1.IN1 JK_FF_mag_3.nand2_mag_1.IN2 VDD.t99 pfet_03v3 ad=0.352p pd=2.48u as=0.208p ps=1.32u w=0.8u l=0.28u
X94 a_4405_4070# RST.t6 a_4245_4070# VSS.t83 nfet_03v3 ad=0.172p pd=1.18u as=0.172p ps=1.18u w=0.66u l=0.28u
X95 JK_FF_mag_0.nand3_mag_2.OUT Q2.t7 VDD.t348 VDD.t347 pfet_03v3 ad=0.352p pd=2.48u as=0.208p ps=1.32u w=0.8u l=0.28u
X96 VSS JK_FF_mag_2.nand2_mag_4.IN2 a_57_4071# VSS.t185 nfet_03v3 ad=0.194p pd=1.76u as=0.114p ps=0.96u w=0.44u l=0.28u
X97 a_621_4071# JK_FF_mag_2.nand2_mag_3.IN1 JK_FF_mag_2.nand2_mag_4.IN2 VSS.t3 nfet_03v3 ad=0.114p pd=0.96u as=0.194p ps=1.76u w=0.44u l=0.28u
X98 a_7360_1345# JK_FF_mag_4.nand3_mag_0.OUT VSS.t1 VSS.t0 nfet_03v3 ad=0.114p pd=0.96u as=0.194p ps=1.76u w=0.44u l=0.28u
X99 nand_5_mag_0.and_5_mag_0.and2_mag_3.GF_INV_MAG_0.IN Q1.t8 a_9908_3052# VSS.t39 nfet_03v3 ad=0.194p pd=1.76u as=0.114p ps=0.96u w=0.44u l=0.28u
X100 JK_FF_mag_4.nand3_mag_0.OUT VDD.t27 VDD.t29 VDD.t28 pfet_03v3 ad=0.208p pd=1.32u as=0.352p ps=2.48u w=0.8u l=0.28u
X101 VDD CLK.t3 and_5_mag_0.and2_mag_3.GF_INV_MAG_0.IN VDD.t110 pfet_03v3 ad=0.352p pd=2.48u as=0.208p ps=1.32u w=0.8u l=0.28u
X102 VDD JK_FF_mag_2.nand3_mag_1.IN1 JK_FF_mag_2.nand2_mag_1.IN2 VDD.t96 pfet_03v3 ad=0.352p pd=2.48u as=0.208p ps=1.32u w=0.8u l=0.28u
X103 JK_FF_mag_2.nand3_mag_0.OUT Q0.t6 VDD.t242 VDD.t241 pfet_03v3 ad=0.208p pd=1.32u as=0.208p ps=1.32u w=0.8u l=0.28u
X104 nand_5_mag_0.GF_INV_MAG_0.IN nand_5_mag_0.and_5_mag_0.and2_mag_3.GF_INV_MAG_0.IN VSS.t222 VSS.t221 nfet_03v3 ad=0.152p pd=1.64u as=0.152p ps=1.64u w=0.22u l=0.28u
X105 a_11530_2405# Q4.t4 VDD.t311 VDD.t310 pfet_03v3 ad=0.416p pd=2.12u as=0.704p ps=4.08u w=1.6u l=0.28u
X106 VDD JK_FF_mag_4.QB Q4.t1 VDD.t259 pfet_03v3 ad=0.352p pd=2.48u as=0.208p ps=1.32u w=0.8u l=0.28u
X107 VDD RST.t7 JK_FF_mag_0.nand3_mag_1.OUT VDD.t160 pfet_03v3 ad=0.208p pd=1.32u as=0.208p ps=1.32u w=0.8u l=0.28u
X108 JK_FF_mag_4.nand2_mag_1.IN2 JK_FF_mag_4.nand2_mag_3.IN1 a_7924_1345# VSS.t215 nfet_03v3 ad=0.194p pd=1.76u as=0.114p ps=0.96u w=0.44u l=0.28u
X109 and_5_mag_0.and2_mag_2.GF_INV_MAG_0.IN and_5_mag_0.and2_mag_2.IN2 VDD.t263 VDD.t262 pfet_03v3 ad=0.208p pd=1.32u as=0.352p ps=2.48u w=0.8u l=0.28u
X110 and_5_mag_0.VOUT and_5_mag_0.and2_mag_3.GF_INV_MAG_0.IN VDD.t185 VDD.t184 pfet_03v3 ad=0.352p pd=2.48u as=0.352p ps=2.48u w=0.8u l=0.28u
X111 a_3724_1302# Q2.t8 a_3564_1302# VSS.t225 nfet_03v3 ad=0.172p pd=1.18u as=0.172p ps=1.18u w=0.66u l=0.28u
X112 Buffer_Delayed1_mag_0.Inverter_delayed_mag_6.IN Buffer_Delayed1_mag_0.Inverter_delayed_mag_5.IN VSS.t46 VSS.t45 nfet_03v3 ad=0.152p pd=1.64u as=0.152p ps=1.64u w=0.22u l=1u
X113 RST nand_5_mag_0.GF_INV_MAG_0.IN VSS.t234 VSS.t233 nfet_03v3 ad=0.152p pd=1.64u as=0.152p ps=1.64u w=0.22u l=0.28u
X114 JK_FF_mag_4.nand3_mag_2.OUT Q4.t5 VDD.t313 VDD.t312 pfet_03v3 ad=0.352p pd=2.48u as=0.208p ps=1.32u w=0.8u l=0.28u
X115 VDD JK_FF_mag_2.nand2_mag_1.IN2 Q1.t0 VDD.t44 pfet_03v3 ad=0.352p pd=2.48u as=0.208p ps=1.32u w=0.8u l=0.28u
X116 JK_FF_mag_4.nand2_mag_3.IN1 Q3.t14 VSS.t92 VSS.t91 nfet_03v3 ad=0.152p pd=1.64u as=0.152p ps=1.64u w=0.22u l=0.28u
X117 a_3558_205# VDD.t365 VSS.t151 VSS.t150 nfet_03v3 ad=0.172p pd=1.18u as=0.29p ps=2.2u w=0.66u l=0.28u
X118 JK_FF_mag_2.nand2_mag_1.IN2 JK_FF_mag_2.nand2_mag_3.IN1 VDD.t3 VDD.t2 pfet_03v3 ad=0.208p pd=1.32u as=0.352p ps=2.48u w=0.8u l=0.28u
X119 JK_FF_mag_0.nand3_mag_1.IN1 JK_FF_mag_0.nand3_mag_1.OUT a_1246_1337# VSS.t38 nfet_03v3 ad=0.194p pd=1.76u as=0.114p ps=0.96u w=0.44u l=0.28u
X120 Q4 JK_FF_mag_4.nand2_mag_1.IN2 VDD.t196 VDD.t195 pfet_03v3 ad=0.208p pd=1.32u as=0.352p ps=2.48u w=0.8u l=0.28u
X121 VDD JK_FF_mag_1.nand2_mag_3.IN1 JK_FF_mag_1.nand2_mag_4.IN2 VDD.t85 pfet_03v3 ad=0.352p pd=2.48u as=0.208p ps=1.32u w=0.8u l=0.28u
X122 a_57_4071# Q1.t9 JK_FF_mag_2.QB VSS.t179 nfet_03v3 ad=0.114p pd=0.96u as=0.194p ps=1.76u w=0.44u l=0.28u
X123 VDD JK_FF_mag_2.nand3_mag_2.OUT JK_FF_mag_2.nand3_mag_1.OUT VDD.t250 pfet_03v3 ad=0.352p pd=2.48u as=0.208p ps=1.32u w=0.8u l=0.28u
X124 a_1810_1337# JK_FF_mag_0.nand3_mag_1.IN1 VSS.t110 VSS.t109 nfet_03v3 ad=0.114p pd=0.96u as=0.194p ps=1.76u w=0.44u l=0.28u
X125 a_3564_1302# VDD.t366 VSS.t153 VSS.t152 nfet_03v3 ad=0.172p pd=1.18u as=0.29p ps=2.2u w=0.66u l=0.28u
X126 JK_FF_mag_4.QB JK_FF_mag_4.nand2_mag_4.IN2 VDD.t75 VDD.t74 pfet_03v3 ad=0.208p pd=1.32u as=0.352p ps=2.48u w=0.8u l=0.28u
X127 VDD Q2.t9 and_5_mag_0.and2_mag_2.GF_INV_MAG_0.IN VDD.t349 pfet_03v3 ad=0.352p pd=2.48u as=0.208p ps=1.32u w=0.8u l=0.28u
X128 Vdiv31 or_2_mag_0.GF_INV_MAG_1.IN VDD.t356 VDD.t355 pfet_03v3 ad=0.352p pd=2.48u as=0.352p ps=2.48u w=0.8u l=0.28u
X129 a_4442_205# RST.t8 a_4282_205# VSS.t84 nfet_03v3 ad=0.172p pd=1.18u as=0.172p ps=1.18u w=0.66u l=0.28u
X130 Q2 JK_FF_mag_0.QB.t5 a_2374_1337# VSS.t143 nfet_03v3 ad=0.194p pd=1.76u as=0.114p ps=0.96u w=0.44u l=0.28u
X131 nand_5_mag_0.and_5_mag_0.and2_mag_3.IN2 nand_5_mag_0.and_5_mag_0.and2_mag_2.GF_INV_MAG_0.IN VDD.t228 VDD.t227 pfet_03v3 ad=0.352p pd=2.48u as=0.352p ps=2.48u w=0.8u l=0.28u
X132 nand_5_mag_0.and_5_mag_0.and2_mag_3.GF_INV_MAG_0.IN nand_5_mag_0.and_5_mag_0.and2_mag_3.IN2 VDD.t82 VDD.t81 pfet_03v3 ad=0.208p pd=1.32u as=0.352p ps=2.48u w=0.8u l=0.28u
X133 a_6636_1301# VDD.t367 VSS.t155 VSS.t154 nfet_03v3 ad=0.172p pd=1.18u as=0.29p ps=2.2u w=0.66u l=0.28u
X134 Buffer_Delayed1_mag_0.Inverter_delayed_mag_4.IN Buffer_Delayed1_mag_0.Inverter_delayed_mag_3.IN VDD.t221 VDD.t220 pfet_03v3 ad=0.352p pd=2.48u as=0.352p ps=2.48u w=0.8u l=1u
X135 a_5006_249# JK_FF_mag_1.nand3_mag_1.OUT VSS.t77 VSS.t76 nfet_03v3 ad=0.114p pd=0.96u as=0.194p ps=1.76u w=0.44u l=0.28u
X136 JK_FF_mag_0.nand3_mag_1.IN1 JK_FF_mag_0.nand3_mag_0.OUT VDD.t299 VDD.t298 pfet_03v3 ad=0.208p pd=1.32u as=0.352p ps=2.48u w=0.8u l=0.28u
X137 a_2374_1337# JK_FF_mag_0.nand2_mag_1.IN2 VSS.t63 VSS.t62 nfet_03v3 ad=0.114p pd=0.96u as=0.194p ps=1.76u w=0.44u l=0.28u
X138 VDD Q2.t10 JK_FF_mag_1.nand3_mag_2.OUT VDD.t352 pfet_03v3 ad=0.208p pd=1.32u as=0.208p ps=1.32u w=0.8u l=0.28u
X139 JK_FF_mag_4.nand3_mag_2.OUT Q4.t6 a_6790_204# VSS.t210 nfet_03v3 ad=0.29p pd=2.2u as=0.172p ps=1.18u w=0.66u l=0.28u
X140 a_9908_3052# nand_5_mag_0.and_5_mag_0.and2_mag_3.IN2 VSS.t40 VSS.t39 nfet_03v3 ad=0.114p pd=0.96u as=0.194p ps=1.76u w=0.44u l=0.28u
X141 VSS or_2_mag_0.IN1 or_2_mag_0.GF_INV_MAG_1.IN VSS.t112 nfet_03v3 ad=0.152p pd=1.64u as=86.8f ps=0.92u w=0.22u l=0.28u
X142 JK_FF_mag_1.nand2_mag_1.IN2 JK_FF_mag_1.nand2_mag_3.IN1 a_4852_1346# VSS.t44 nfet_03v3 ad=0.194p pd=1.76u as=0.114p ps=0.96u w=0.44u l=0.28u
X143 nand_5_mag_0.and_5_mag_0.and2_mag_3.IN2 nand_5_mag_0.and_5_mag_0.and2_mag_2.GF_INV_MAG_0.IN VSS.t132 VSS.t131 nfet_03v3 ad=0.152p pd=1.64u as=0.152p ps=1.64u w=0.22u l=0.28u
X144 and_5_mag_0.and2_mag_3.GF_INV_MAG_0.IN and_5_mag_0.and2_mag_3.IN2 VDD.t48 VDD.t47 pfet_03v3 ad=0.208p pd=1.32u as=0.352p ps=2.48u w=0.8u l=0.28u
X145 a_676_196# Q1.t10 a_516_196# VSS.t180 nfet_03v3 ad=0.172p pd=1.18u as=0.172p ps=1.18u w=0.66u l=0.28u
X146 JK_FF_mag_4.nand3_mag_1.OUT JK_FF_mag_4.nand3_mag_1.IN1 VDD.t126 VDD.t125 pfet_03v3 ad=0.352p pd=2.48u as=0.208p ps=1.32u w=0.8u l=0.28u
X147 JK_FF_mag_0.nand2_mag_3.IN1 Q1.t11 VSS.t182 VSS.t181 nfet_03v3 ad=0.152p pd=1.64u as=0.152p ps=1.64u w=0.22u l=0.28u
X148 nand_5_mag_0.and_5_mag_0.and2_mag_0.GF_INV_MAG_0.IN Q0.t7 VDD.t240 VDD.t239 pfet_03v3 ad=0.208p pd=1.32u as=0.352p ps=2.48u w=0.8u l=0.28u
X149 a_8945_3798# and_5_mag_0.and2_mag_2.IN2 VSS.t178 VSS.t177 nfet_03v3 ad=0.114p pd=0.96u as=0.194p ps=1.76u w=0.44u l=0.28u
X150 and_5_mag_0.and2_mag_3.GF_INV_MAG_0.IN CLK.t4 a_9909_3809# VSS.t9 nfet_03v3 ad=0.194p pd=1.76u as=0.114p ps=0.96u w=0.44u l=0.28u
X151 VDD JK_FF_mag_1.nand3_mag_1.OUT JK_FF_mag_1.nand3_mag_1.IN1 VDD.t140 pfet_03v3 ad=0.352p pd=2.48u as=0.208p ps=1.32u w=0.8u l=0.28u
X152 VSS JK_FF_mag_2.nand3_mag_0.OUT a_1339_2974# VSS.t2 nfet_03v3 ad=0.194p pd=1.76u as=0.114p ps=0.96u w=0.44u l=0.28u
X153 JK_FF_mag_0.nand3_mag_0.OUT VDD.t24 VDD.t26 VDD.t25 pfet_03v3 ad=0.208p pd=1.32u as=0.352p ps=2.48u w=0.8u l=0.28u
X154 JK_FF_mag_1.nand2_mag_1.IN2 JK_FF_mag_1.nand3_mag_1.IN1 VDD.t9 VDD.t8 pfet_03v3 ad=0.208p pd=1.32u as=0.352p ps=2.48u w=0.8u l=0.28u
X155 a_3718_205# Q2.t11 a_3558_205# VSS.t226 nfet_03v3 ad=0.172p pd=1.18u as=0.172p ps=1.18u w=0.66u l=0.28u
X156 a_1903_2974# JK_FF_mag_2.QB JK_FF_mag_2.nand3_mag_0.OUT VSS.t115 nfet_03v3 ad=0.172p pd=1.18u as=0.29p ps=2.2u w=0.66u l=0.28u
X157 or_2_mag_0.GF_INV_MAG_1.IN Q4.t7 VSS.t212 VSS.t211 nfet_03v3 ad=86.8f pd=0.92u as=0.152p ps=1.64u w=0.22u l=0.28u
X158 JK_FF_mag_0.nand3_mag_0.OUT JK_FF_mag_0.QB.t6 a_682_1293# VSS.t144 nfet_03v3 ad=0.29p pd=2.2u as=0.172p ps=1.18u w=0.66u l=0.28u
X159 Buffer_Delayed1_mag_0.Inverter_delayed_mag_3.IN Buffer_Delayed1_mag_0.Inverter_delayed_mag_0.IN VDD.t329 VDD.t328 pfet_03v3 ad=0.352p pd=2.48u as=0.352p ps=2.48u w=0.8u l=1u
X160 VSS VDD.t368 a_2063_2974# VSS.t115 nfet_03v3 ad=0.29p pd=2.2u as=0.172p ps=1.18u w=0.66u l=0.28u
X161 VDD Q4.t8 nand_5_mag_0.and_5_mag_0.and2_mag_0.GF_INV_MAG_0.IN VDD.t314 pfet_03v3 ad=0.352p pd=2.48u as=0.208p ps=1.32u w=0.8u l=0.28u
X162 a_7047_3047# Q0.t8 VSS.t140 VSS.t139 nfet_03v3 ad=0.114p pd=0.96u as=0.194p ps=1.76u w=0.44u l=0.28u
X163 nand_5_mag_0.and_5_mag_0.and2_mag_1.IN2 nand_5_mag_0.and_5_mag_0.and2_mag_0.GF_INV_MAG_0.IN VDD.t84 VDD.t83 pfet_03v3 ad=0.352p pd=2.48u as=0.352p ps=2.48u w=0.8u l=0.28u
X164 VDD JK_FF_mag_1.QB Q3.t0 VDD.t149 pfet_03v3 ad=0.352p pd=2.48u as=0.208p ps=1.32u w=0.8u l=0.28u
X165 Q4 JK_FF_mag_4.QB a_8488_1345# VSS.t176 nfet_03v3 ad=0.194p pd=1.76u as=0.114p ps=0.96u w=0.44u l=0.28u
X166 and_5_mag_0.and2_mag_0.GF_INV_MAG_0.IN Q0.t9 VDD.t238 VDD.t237 pfet_03v3 ad=0.208p pd=1.32u as=0.352p ps=2.48u w=0.8u l=0.28u
X167 VSS JK_FF_mag_3.nand3_mag_1.IN1 a_3835_2973# VSS.t51 nfet_03v3 ad=0.194p pd=1.76u as=0.114p ps=0.96u w=0.44u l=0.28u
X168 VDD Q0.t10 JK_FF_mag_2.nand2_mag_3.IN1 VDD.t234 pfet_03v3 ad=0.352p pd=2.48u as=0.352p ps=2.48u w=0.8u l=0.28u
X169 JK_FF_mag_1.nand3_mag_1.IN1 JK_FF_mag_1.nand3_mag_0.OUT VDD.t338 VDD.t337 pfet_03v3 ad=0.208p pd=1.32u as=0.352p ps=2.48u w=0.8u l=0.28u
X170 and_5_mag_0.and2_mag_2.GF_INV_MAG_0.IN Q2.t12 a_8945_3798# VSS.t177 nfet_03v3 ad=0.194p pd=1.76u as=0.114p ps=0.96u w=0.44u l=0.28u
X171 JK_FF_mag_2.nand3_mag_1.IN1 JK_FF_mag_2.nand3_mag_1.OUT VDD.t124 VDD.t123 pfet_03v3 ad=0.208p pd=1.32u as=0.352p ps=2.48u w=0.8u l=0.28u
X172 JK_FF_mag_4.nand3_mag_1.OUT JK_FF_mag_4.nand3_mag_1.IN1 a_7514_204# VSS.t67 nfet_03v3 ad=0.29p pd=2.2u as=0.172p ps=1.18u w=0.66u l=0.28u
X173 a_682_1293# Q1.t12 a_522_1293# VSS.t183 nfet_03v3 ad=0.172p pd=1.18u as=0.172p ps=1.18u w=0.66u l=0.28u
X174 a_3117_4070# Q0.t11 JK_FF_mag_3.QB VSS.t138 nfet_03v3 ad=0.114p pd=0.96u as=0.194p ps=1.76u w=0.44u l=0.28u
X175 a_5129_4070# CLK.t5 a_4969_4070# VSS.t61 nfet_03v3 ad=0.172p pd=1.18u as=0.172p ps=1.18u w=0.66u l=0.28u
X176 VSS JK_FF_mag_2.nand3_mag_1.IN1 a_775_2974# VSS.t2 nfet_03v3 ad=0.194p pd=1.76u as=0.114p ps=0.96u w=0.44u l=0.28u
X177 a_2063_2974# Q0.t12 a_1903_2974# VSS.t115 nfet_03v3 ad=0.172p pd=1.18u as=0.172p ps=1.18u w=0.66u l=0.28u
X178 JK_FF_mag_1.nand2_mag_3.IN1 Q2.t13 VSS.t228 VSS.t227 nfet_03v3 ad=0.152p pd=1.64u as=0.152p ps=1.64u w=0.22u l=0.28u
X179 and_5_mag_0.VOUT and_5_mag_0.and2_mag_3.GF_INV_MAG_0.IN VSS.t95 VSS.t94 nfet_03v3 ad=0.152p pd=1.64u as=0.152p ps=1.64u w=0.22u l=0.28u
X180 VDD JK_FF_mag_3.nand2_mag_1.IN2 Q0.t0 VDD.t105 pfet_03v3 ad=0.352p pd=2.48u as=0.208p ps=1.32u w=0.8u l=0.28u
X181 JK_FF_mag_1.nand2_mag_4.IN2 JK_FF_mag_1.nand2_mag_3.IN1 a_5006_249# VSS.t43 nfet_03v3 ad=0.194p pd=1.76u as=0.114p ps=0.96u w=0.44u l=0.28u
X182 a_8488_1345# JK_FF_mag_4.nand2_mag_1.IN2 VSS.t105 VSS.t104 nfet_03v3 ad=0.114p pd=0.96u as=0.194p ps=1.76u w=0.44u l=0.28u
X183 a_4245_4070# JK_FF_mag_3.nand3_mag_1.IN1 JK_FF_mag_3.nand3_mag_1.OUT VSS.t50 nfet_03v3 ad=0.172p pd=1.18u as=0.29p ps=2.2u w=0.66u l=0.28u
X184 JK_FF_mag_3.nand2_mag_1.IN2 JK_FF_mag_3.nand2_mag_3.IN1 VDD.t211 VDD.t210 pfet_03v3 ad=0.208p pd=1.32u as=0.352p ps=2.48u w=0.8u l=0.28u
X185 VDD Q1.t13 and_5_mag_0.and2_mag_0.GF_INV_MAG_0.IN VDD.t277 pfet_03v3 ad=0.352p pd=2.48u as=0.208p ps=1.32u w=0.8u l=0.28u
X186 nand_5_mag_0.and_5_mag_0.and2_mag_0.GF_INV_MAG_0.IN Q4.t9 a_7047_3047# VSS.t139 nfet_03v3 ad=0.194p pd=1.76u as=0.114p ps=0.96u w=0.44u l=0.28u
X187 Buffer_Delayed1_mag_0.Inverter_delayed_mag_5.IN Buffer_Delayed1_mag_0.Inverter_delayed_mag_4.IN VSS.t127 VSS.t126 nfet_03v3 ad=0.152p pd=1.64u as=0.152p ps=1.64u w=0.22u l=1u
X188 a_8642_248# JK_FF_mag_4.nand2_mag_4.IN2 VSS.t35 VSS.t34 nfet_03v3 ad=0.114p pd=0.96u as=0.194p ps=1.76u w=0.44u l=0.28u
X189 and_5_mag_0.and2_mag_1.IN2 and_5_mag_0.and2_mag_0.GF_INV_MAG_0.IN VDD.t297 VDD.t296 pfet_03v3 ad=0.352p pd=2.48u as=0.352p ps=2.48u w=0.8u l=0.28u
X190 VSS JK_FF_mag_2.nand2_mag_1.IN2 a_211_2974# VSS.t2 nfet_03v3 ad=0.194p pd=1.76u as=0.114p ps=0.96u w=0.44u l=0.28u
X191 JK_FF_mag_0.QB Q2.t14 a_2528_240# VSS.t229 nfet_03v3 ad=0.194p pd=1.76u as=0.114p ps=0.96u w=0.44u l=0.28u
X192 a_775_2974# JK_FF_mag_2.nand2_mag_3.IN1 JK_FF_mag_2.nand2_mag_1.IN2 VSS.t2 nfet_03v3 ad=0.114p pd=0.96u as=0.194p ps=1.76u w=0.44u l=0.28u
X193 VDD JK_FF_mag_3.nand3_mag_0.OUT JK_FF_mag_3.nand3_mag_1.IN1 VDD.t224 pfet_03v3 ad=0.352p pd=2.48u as=0.208p ps=1.32u w=0.8u l=0.28u
X194 VDD JK_FF_mag_3.QB JK_FF_mag_3.nand3_mag_0.OUT VDD.t305 pfet_03v3 ad=0.208p pd=1.32u as=0.352p ps=2.48u w=0.8u l=0.28u
X195 JK_FF_mag_4.nand3_mag_1.OUT JK_FF_mag_4.nand3_mag_2.OUT VDD.t360 VDD.t359 pfet_03v3 ad=0.208p pd=1.32u as=0.352p ps=2.48u w=0.8u l=0.28u
X196 Q0 JK_FF_mag_3.QB VDD.t304 VDD.t303 pfet_03v3 ad=0.208p pd=1.32u as=0.352p ps=2.48u w=0.8u l=0.28u
X197 VDD VDD.t20 JK_FF_mag_3.nand3_mag_0.OUT VDD.t21 pfet_03v3 ad=0.352p pd=2.48u as=0.208p ps=1.32u w=0.8u l=0.28u
X198 VDD Q1.t14 JK_FF_mag_2.nand3_mag_2.OUT VDD.t280 pfet_03v3 ad=0.208p pd=1.32u as=0.352p ps=2.48u w=0.8u l=0.28u
X199 a_9909_3809# and_5_mag_0.and2_mag_3.IN2 VSS.t10 VSS.t9 nfet_03v3 ad=0.114p pd=0.96u as=0.194p ps=1.76u w=0.44u l=0.28u
X200 JK_FF_mag_0.nand3_mag_2.OUT Q2.t15 a_676_196# VSS.t230 nfet_03v3 ad=0.29p pd=2.2u as=0.172p ps=1.18u w=0.66u l=0.28u
X201 VDD VDD.t16 JK_FF_mag_2.nand3_mag_2.OUT VDD.t17 pfet_03v3 ad=0.352p pd=2.48u as=0.208p ps=1.32u w=0.8u l=0.28u
X202 and_5_mag_0.and2_mag_3.IN2 and_5_mag_0.and2_mag_2.GF_INV_MAG_0.IN VDD.t73 VDD.t72 pfet_03v3 ad=0.352p pd=2.48u as=0.352p ps=2.48u w=0.8u l=0.28u
X203 Q1 JK_FF_mag_2.QB VDD.t206 VDD.t205 pfet_03v3 ad=0.208p pd=1.32u as=0.352p ps=2.48u w=0.8u l=0.28u
X204 nand_5_mag_0.and_5_mag_0.and2_mag_1.GF_INV_MAG_0.IN nand_5_mag_0.and_5_mag_0.and2_mag_1.IN2 VDD.t191 VDD.t190 pfet_03v3 ad=0.208p pd=1.32u as=0.352p ps=2.48u w=0.8u l=0.28u
X205 a_1246_1337# JK_FF_mag_0.nand3_mag_0.OUT VSS.t201 VSS.t200 nfet_03v3 ad=0.114p pd=0.96u as=0.194p ps=1.76u w=0.44u l=0.28u
X206 JK_FF_mag_2.nand3_mag_1.OUT RST.t9 VDD.t164 VDD.t163 pfet_03v3 ad=0.208p pd=1.32u as=0.208p ps=1.32u w=0.8u l=0.28u
X207 and_5_mag_0.and2_mag_3.IN2 and_5_mag_0.and2_mag_2.GF_INV_MAG_0.IN VSS.t33 VSS.t32 nfet_03v3 ad=0.152p pd=1.64u as=0.152p ps=1.64u w=0.22u l=0.28u
X208 Buffer_Delayed1_mag_0.Inverter_delayed_mag_0.IN Buffer_Delayed1_mag_0.Inverter_delayed_mag_2.IN VDD.t254 VDD.t253 pfet_03v3 ad=0.352p pd=2.48u as=0.352p ps=2.48u w=0.8u l=1u
X209 a_1400_196# RST.t10 a_1240_196# VSS.t85 nfet_03v3 ad=0.172p pd=1.18u as=0.172p ps=1.18u w=0.66u l=0.28u
X210 JK_FF_mag_0.QB JK_FF_mag_0.nand2_mag_4.IN2 VDD.t187 VDD.t186 pfet_03v3 ad=0.208p pd=1.32u as=0.352p ps=2.48u w=0.8u l=0.28u
X211 VSS JK_FF_mag_2.nand3_mag_2.OUT a_1345_4071# VSS.t168 nfet_03v3 ad=0.29p pd=2.2u as=0.172p ps=1.18u w=0.66u l=0.28u
X212 JK_FF_mag_2.nand3_mag_2.OUT Q0.t13 VDD.t233 VDD.t232 pfet_03v3 ad=0.208p pd=1.32u as=0.208p ps=1.32u w=0.8u l=0.28u
X213 Vdiv31 or_2_mag_0.GF_INV_MAG_1.IN VSS.t232 VSS.t231 nfet_03v3 ad=0.152p pd=1.64u as=0.152p ps=1.64u w=0.22u l=0.28u
X214 JK_FF_mag_4.nand2_mag_4.IN2 JK_FF_mag_4.nand3_mag_1.OUT VDD.t136 VDD.t135 pfet_03v3 ad=0.208p pd=1.32u as=0.352p ps=2.48u w=0.8u l=0.28u
X215 VDD JK_FF_mag_2.nand3_mag_1.IN1 JK_FF_mag_2.nand3_mag_1.OUT VDD.t93 pfet_03v3 ad=0.208p pd=1.32u as=0.352p ps=2.48u w=0.8u l=0.28u
X216 a_7993_3052# nand_5_mag_0.and_5_mag_0.and2_mag_1.IN2 VSS.t100 VSS.t99 nfet_03v3 ad=0.114p pd=0.96u as=0.194p ps=1.76u w=0.44u l=0.28u
X217 a_7354_204# JK_FF_mag_4.nand3_mag_2.OUT VSS.t236 VSS.t235 nfet_03v3 ad=0.172p pd=1.18u as=0.29p ps=2.2u w=0.66u l=0.28u
X218 JK_FF_mag_0.nand2_mag_4.IN2 JK_FF_mag_0.nand2_mag_3.IN1 a_1964_240# VSS.t70 nfet_03v3 ad=0.194p pd=1.76u as=0.114p ps=0.96u w=0.44u l=0.28u
X219 JK_FF_mag_1.nand3_mag_1.OUT JK_FF_mag_1.nand3_mag_1.IN1 VDD.t7 VDD.t6 pfet_03v3 ad=0.352p pd=2.48u as=0.208p ps=1.32u w=0.8u l=0.28u
X220 JK_FF_mag_0.nand3_mag_2.OUT VDD.t13 VDD.t15 VDD.t14 pfet_03v3 ad=0.208p pd=1.32u as=0.352p ps=2.48u w=0.8u l=0.28u
X221 VDD Buffer_Delayed1_mag_0.Inverter_delayed_mag_12.IN Buffer_Delayed1_mag_0.Inverter_delayed_mag_11.IN VDD.t214 pfet_03v3 ad=0.352p pd=2.48u as=0.352p ps=2.48u w=0.8u l=1u
X222 VDD JK_FF_mag_3.nand3_mag_2.OUT JK_FF_mag_3.nand3_mag_1.OUT VDD.t67 pfet_03v3 ad=0.352p pd=2.48u as=0.208p ps=1.32u w=0.8u l=0.28u
X223 VDD JK_FF_mag_2.nand3_mag_1.OUT JK_FF_mag_2.nand2_mag_4.IN2 VDD.t120 pfet_03v3 ad=0.352p pd=2.48u as=0.208p ps=1.32u w=0.8u l=0.28u
X224 and_5_mag_0.and2_mag_1.GF_INV_MAG_0.IN and_5_mag_0.and2_mag_1.IN2 VDD.t189 VDD.t188 pfet_03v3 ad=0.208p pd=1.32u as=0.352p ps=2.48u w=0.8u l=0.28u
X225 a_7048_3814# Q0.t14 VSS.t137 VSS.t136 nfet_03v3 ad=0.114p pd=0.96u as=0.194p ps=1.76u w=0.44u l=0.28u