* NGSPICE file created from CLK_div_110_mag_flat.ext - technology: gf180mcuC

.subckt pex_CLK_div_110_mag VSS VDD RST Vdiv110 CLK
X0 CLK_DIV_11_mag_new_0.nor_3_mag_0.IN3 CLK_DIV_11_mag_new_0.Buffer_delayed_mag_1.Inverter_delayed_mag_0.IN VSS.t282 VSS.t167 nfet_03v3 ad=0.152p pd=1.64u as=0.152p ps=1.64u w=0.22u l=1u
X1 Vdiv110 CLK_div_10_mag_0.Q3 a_12478_n2129# VDD.t162 pfet_03v3 ad=1.06p pd=5.68u as=0.624p ps=2.92u w=2.4u l=0.28u
X2 VDD CLK_div_10_mag_0.JK_FF_mag_1.QB CLK_div_10_mag_0.Q0 VDD.t467 pfet_03v3 ad=0.352p pd=2.48u as=0.208p ps=1.32u w=0.8u l=0.28u
X3 CLK_DIV_11_mag_new_0.nand3_mag_0.OUT CLK_DIV_11_mag_new_0.Q2 a_n1595_3762# VSS.t266 nfet_03v3 ad=0.29p pd=2.2u as=0.172p ps=1.18u w=0.66u l=0.28u
X4 CLK_DIV_11_mag_new_0.nor_3_mag_0.OUT CLK_DIV_11_mag_new_0.Q3 a_9506_4996# VDD.t415 pfet_03v3 ad=1.06p pd=5.68u as=0.624p ps=2.92u w=2.4u l=0.28u
X5 CLK_div_10_mag_0.JK_FF_mag_3.QB CLK_div_10_mag_0.Q2 a_9414_759# VSS.t40 nfet_03v3 ad=0.194p pd=1.76u as=0.114p ps=0.96u w=0.44u l=0.28u
X6 CLK_DIV_11_mag_new_0.Q3 CLK_DIV_11_mag_new_0.or_2_mag_3.IN2 a_2874_2775# VSS.t236 nfet_03v3 ad=0.194p pd=1.76u as=0.114p ps=0.96u w=0.44u l=0.28u
X7 CLK_div_10_mag_0.JK_FF_mag_1.nand3_mag_1.IN1 CLK_div_10_mag_0.JK_FF_mag_1.nand3_mag_0.OUT VDD.t164 VDD.t163 pfet_03v3 ad=0.208p pd=1.32u as=0.352p ps=2.48u w=0.8u l=0.28u
X8 CLK_DIV_11_mag_new_0.JK_FF_mag_0.K CLK_DIV_11_mag_new_0.or_2_mag_0.GF_INV_MAG_1.IN VSS.t148 VSS.t147 nfet_03v3 ad=0.152p pd=1.64u as=0.152p ps=1.64u w=0.22u l=0.28u
X9 a_11143_759# CLK_div_10_mag_0.JK_FF_mag_0.nand3_mag_2.OUT VSS.t146 VSS.t145 nfet_03v3 ad=0.172p pd=1.18u as=0.29p ps=2.2u w=0.66u l=0.28u
X10 VDD CLK_DIV_11_mag_new_0.Q0 CLK_DIV_11_mag_new_0.nand3_mag_1.OUT VDD.t152 pfet_03v3 ad=0.208p pd=1.32u as=0.208p ps=1.32u w=0.8u l=0.28u
X11 VDD CLK_div_10_mag_0.Q1 CLK_div_10_mag_0.JK_FF_mag_2.QB VDD.t182 pfet_03v3 ad=0.352p pd=2.48u as=0.208p ps=1.32u w=0.8u l=0.28u
X12 CLK_div_10_mag_0.JK_FF_mag_2.nand3_mag_2.OUT VDD.t268 VDD.t270 VDD.t269 pfet_03v3 ad=0.208p pd=1.32u as=0.352p ps=2.48u w=0.8u l=0.28u
X13 CLK_DIV_11_mag_new_0.JK_FF_mag_0.nand2_mag_1.IN2 CLK_DIV_11_mag_new_0.JK_FF_mag_0.nand2_mag_3.IN1 a_2310_2775# VSS.t245 nfet_03v3 ad=0.194p pd=1.76u as=0.114p ps=0.96u w=0.44u l=0.28u
X14 CLK_DIV_11_mag_new_0.or_2_mag_1.GF_INV_MAG_1.IN CLK_DIV_11_mag_new_0.or_2_mag_1.IN1 a_n358_4884# VDD.t243 pfet_03v3 ad=0.704p pd=4.08u as=0.416p ps=2.12u w=1.6u l=0.28u
X15 CLK_div_10_mag_0.JK_FF_mag_0.nand3_mag_2.OUT CLK_div_10_mag_0.Q3 VDD.t161 VDD.t160 pfet_03v3 ad=0.352p pd=2.48u as=0.208p ps=1.32u w=0.8u l=0.28u
X16 a_2874_2775# CLK_DIV_11_mag_new_0.JK_FF_mag_0.nand2_mag_1.IN2 VSS.t241 VSS.t240 nfet_03v3 ad=0.114p pd=0.96u as=0.194p ps=1.76u w=0.44u l=0.28u
X17 CLK_div_10_mag_0.and2_mag_1.GF_INV_MAG_0.IN CLK_div_10_mag_0.Q0 VDD.t26 VDD.t25 pfet_03v3 ad=0.208p pd=1.32u as=0.352p ps=2.48u w=0.8u l=0.28u
X18 CLK_DIV_11_mag_new_0.JK_FF_mag_1.K CLK_DIV_11_mag_new_0.and2_mag_1.GF_INV_MAG_0.IN VDD.t491 VDD.t490 pfet_03v3 ad=0.352p pd=2.48u as=0.352p ps=2.48u w=0.8u l=0.28u
X19 CLK_div_10_mag_0.Buffer_delayed_mag_0.Inverter_delayed_mag_0.IN CLK_div_10_mag_0.and2_mag_1.OUT VSS.t284 VSS.t283 nfet_03v3 ad=0.152p pd=1.64u as=0.152p ps=1.64u w=0.22u l=1u
X20 CLK_div_10_mag_0.JK_FF_mag_2.K CLK_div_10_mag_0.JK_FF_mag_0.nand2_mag_4.IN2 VDD.t483 VDD.t482 pfet_03v3 ad=0.208p pd=1.32u as=0.352p ps=2.48u w=0.8u l=0.28u
X21 CLK_div_10_mag_0.JK_FF_mag_1.nand3_mag_2.OUT CLK_div_10_mag_0.Q0 a_1528_759# VSS.t15 nfet_03v3 ad=0.29p pd=2.2u as=0.172p ps=1.18u w=0.66u l=0.28u
X22 CLK_div_10_mag_0.JK_FF_mag_3.nand3_mag_1.OUT CLK_div_10_mag_0.JK_FF_mag_3.nand3_mag_2.OUT VDD.t156 VDD.t155 pfet_03v3 ad=0.208p pd=1.32u as=0.352p ps=2.48u w=0.8u l=0.28u
X23 a_5904_4934# CLK_DIV_11_mag_new_0.Q0 a_5744_4934# VSS.t88 nfet_03v3 ad=0.172p pd=1.18u as=0.172p ps=1.18u w=0.66u l=0.28u
X24 VDD RST.t0 CLK_DIV_11_mag_new_0.JK_FF_mag_1.nand3_mag_1.OUT VDD.t387 pfet_03v3 ad=0.208p pd=1.32u as=0.208p ps=1.32u w=0.8u l=0.28u
X25 CLK_DIV_11_mag_new_0.nand3_mag_1.OUT CLK.t0 VDD.t41 VDD.t40 pfet_03v3 ad=0.352p pd=2.48u as=0.208p ps=1.32u w=0.8u l=0.28u
X26 CLK_DIV_11_mag_new_0.JK_FF_mag_0.nand3_mag_2.OUT CLK_DIV_11_mag_new_0.JK_FF_mag_0.K VDD.t283 VDD.t282 pfet_03v3 ad=0.208p pd=1.32u as=0.352p ps=2.48u w=0.8u l=0.28u
X27 CLK_div_10_mag_0.JK_FF_mag_2.nand2_mag_4.IN2 CLK_div_10_mag_0.JK_FF_mag_2.nand2_mag_3.IN1 a_5833_759# VSS.t275 nfet_03v3 ad=0.194p pd=1.76u as=0.114p ps=0.96u w=0.44u l=0.28u
X28 VDD CLK_DIV_11_mag_new_0.Q3 CLK_DIV_11_mag_new_0.and2_mag_0.GF_INV_MAG_0.IN VDD.t142 pfet_03v3 ad=0.352p pd=2.48u as=0.208p ps=1.32u w=0.8u l=0.28u
X29 a_3380_759# CLK_div_10_mag_0.JK_FF_mag_1.nand2_mag_4.IN2 VSS.t30 VSS.t29 nfet_03v3 ad=0.114p pd=0.96u as=0.194p ps=1.76u w=0.44u l=0.28u
X30 CLK_DIV_11_mag_new_0.JK_FF_mag_0.nand3_mag_1.IN1 CLK_DIV_11_mag_new_0.JK_FF_mag_0.nand3_mag_0.OUT VDD.t475 VDD.t474 pfet_03v3 ad=0.208p pd=1.32u as=0.352p ps=2.48u w=0.8u l=0.28u
X31 VDD CLK_DIV_11_mag_new_0.JK_FF_mag_1.nand2_mag_3.IN1 CLK_DIV_11_mag_new_0.JK_FF_mag_1.nand2_mag_4.IN2 VDD.t132 pfet_03v3 ad=0.352p pd=2.48u as=0.208p ps=1.32u w=0.8u l=0.28u
X32 CLK_DIV_11_mag_new_0.JK_FF_mag_1.nand3_mag_2.OUT CLK_DIV_11_mag_new_0.Q2 VDD.t431 VDD.t430 pfet_03v3 ad=0.352p pd=2.48u as=0.208p ps=1.32u w=0.8u l=0.28u
X33 a_9123_2775# CLK_DIV_11_mag_new_0.JK_FF_mag_2.nand2_mag_1.IN2 VSS.t46 VSS.t45 nfet_03v3 ad=0.114p pd=0.96u as=0.194p ps=1.76u w=0.44u l=0.28u
X34 VDD CLK_div_10_mag_0.JK_FF_mag_1.nand2_mag_3.IN1 CLK_div_10_mag_0.JK_FF_mag_1.nand2_mag_4.IN2 VDD.t487 pfet_03v3 ad=0.352p pd=2.48u as=0.208p ps=1.32u w=0.8u l=0.28u
X35 CLK_DIV_11_mag_new_0.JK_FF_mag_1.nand3_mag_1.OUT CLK_DIV_11_mag_new_0.JK_FF_mag_1.nand3_mag_2.OUT VDD.t343 VDD.t342 pfet_03v3 ad=0.208p pd=1.32u as=0.352p ps=2.48u w=0.8u l=0.28u
X36 a_12436_1674# CLK_DIV_11_mag_new_0.JK_FF_mag_3.nand2_mag_4.IN2 VSS.t110 VSS.t109 nfet_03v3 ad=0.114p pd=0.96u as=0.194p ps=1.76u w=0.44u l=0.28u
X37 CLK_DIV_11_mag_new_0.JK_FF_mag_2.nand2_mag_4.IN2 CLK_DIV_11_mag_new_0.JK_FF_mag_2.nand2_mag_3.IN1 a_8713_1678# VSS.t135 nfet_03v3 ad=0.194p pd=1.76u as=0.114p ps=0.96u w=0.44u l=0.28u
X38 a_5035_1632# RST.t1 a_4875_1632# VSS.t237 nfet_03v3 ad=0.172p pd=1.18u as=0.172p ps=1.18u w=0.66u l=0.28u
X39 CLK_DIV_11_mag_new_0.nand3_mag_1.OUT CLK.t1 a_5904_4934# VSS.t26 nfet_03v3 ad=0.29p pd=2.2u as=0.172p ps=1.18u w=0.66u l=0.28u
X40 CLK_DIV_11_mag_new_0.JK_FF_mag_1.K CLK_DIV_11_mag_new_0.and2_mag_1.GF_INV_MAG_0.IN VSS.t312 VSS.t311 nfet_03v3 ad=0.152p pd=1.64u as=0.152p ps=1.64u w=0.22u l=0.28u
X41 CLK_DIV_11_mag_new_0.nor_3_mag_0.OUT CLK_DIV_11_mag_new_0.nor_3_mag_0.IN3 VSS.t286 VSS.t285 nfet_03v3 ad=86.8f pd=0.92u as=0.152p ps=1.64u w=0.22u l=0.28u
X42 CLK_DIV_11_mag_new_0.and2_mag_2.GF_INV_MAG_0.IN CLK_DIV_11_mag_new_0.Q3 a_n1762_4447# VSS.t253 nfet_03v3 ad=0.194p pd=1.76u as=0.114p ps=0.96u w=0.44u l=0.28u
X43 CLK_DIV_11_mag_new_0.JK_FF_mag_1.nand3_mag_1.OUT CLK_DIV_11_mag_new_0.JK_FF_mag_1.nand3_mag_1.IN1 VDD.t479 VDD.t478 pfet_03v3 ad=0.352p pd=2.48u as=0.208p ps=1.32u w=0.8u l=0.28u
X44 a_1016_1634# CLK_DIV_11_mag_new_0.JK_FF_mag_0.K VSS.t162 VSS.t66 nfet_03v3 ad=0.172p pd=1.18u as=0.29p ps=2.2u w=0.66u l=0.28u
X45 CLK_div_10_mag_0.JK_FF_mag_3.nand3_mag_0.OUT CLK_div_10_mag_0.JK_FF_mag_3.QB a_7568_n338# VSS.t126 nfet_03v3 ad=0.29p pd=2.2u as=0.172p ps=1.18u w=0.66u l=0.28u
X46 CLK_DIV_11_mag_new_0.JK_FF_mag_3.nand2_mag_3.IN1 CLK.t2 VSS.t28 VSS.t27 nfet_03v3 ad=0.152p pd=1.64u as=0.152p ps=1.64u w=0.22u l=0.28u
X47 CLK_DIV_11_mag_new_0.JK_FF_mag_2.K CLK_DIV_11_mag_new_0.or_2_mag_1.GF_INV_MAG_1.IN VDD.t126 VDD.t125 pfet_03v3 ad=0.352p pd=2.48u as=0.352p ps=2.48u w=0.8u l=0.28u
X48 CLK_div_10_mag_0.JK_FF_mag_2.nand3_mag_1.OUT CLK_div_10_mag_0.JK_FF_mag_2.nand3_mag_1.IN1 a_5269_759# VSS.t59 nfet_03v3 ad=0.29p pd=2.2u as=0.172p ps=1.18u w=0.66u l=0.28u
X49 CLK_DIV_11_mag_new_0.JK_FF_mag_1.nand3_mag_2.OUT CLK_DIV_11_mag_new_0.Q2 a_4311_1632# VSS.t265 nfet_03v3 ad=0.29p pd=2.2u as=0.172p ps=1.18u w=0.66u l=0.28u
X50 CLK_DIV_11_mag_new_0.JK_FF_mag_0.nand2_mag_1.IN2 CLK_DIV_11_mag_new_0.JK_FF_mag_0.nand3_mag_1.IN1 VDD.t99 VDD.t98 pfet_03v3 ad=0.208p pd=1.32u as=0.352p ps=2.48u w=0.8u l=0.28u
X51 CLK_div_10_mag_0.JK_FF_mag_0.nand3_mag_1.OUT CLK_div_10_mag_0.JK_FF_mag_0.nand3_mag_1.IN1 VDD.t464 VDD.t463 pfet_03v3 ad=0.352p pd=2.48u as=0.208p ps=1.32u w=0.8u l=0.28u
X52 a_4875_1632# CLK_DIV_11_mag_new_0.JK_FF_mag_1.nand3_mag_2.OUT VSS.t205 VSS.t204 nfet_03v3 ad=0.172p pd=1.18u as=0.29p ps=2.2u w=0.66u l=0.28u
X53 CLK_div_10_mag_0.and2_mag_1.OUT CLK_div_10_mag_0.and2_mag_1.GF_INV_MAG_0.IN VSS.t203 VSS.t202 nfet_03v3 ad=0.152p pd=1.64u as=0.152p ps=1.64u w=0.22u l=0.28u
X54 CLK_div_10_mag_0.JK_FF_mag_3.nand2_mag_1.IN2 CLK_div_10_mag_0.JK_FF_mag_3.nand2_mag_3.IN1 a_8696_n338# VSS.t63 nfet_03v3 ad=0.194p pd=1.76u as=0.114p ps=0.96u w=0.44u l=0.28u
X55 a_10419_759# VDD.t492 VSS.t92 VSS.t91 nfet_03v3 ad=0.172p pd=1.18u as=0.29p ps=2.2u w=0.66u l=0.28u
X56 CLK_div_10_mag_0.Buffer_delayed_mag_0.Inverter_delayed_mag_0.IN CLK_div_10_mag_0.and2_mag_1.OUT VDD.t455 VDD.t454 pfet_03v3 ad=0.352p pd=2.48u as=0.352p ps=2.48u w=0.8u l=1u
X57 CLK_div_10_mag_0.JK_FF_mag_2.nand2_mag_3.IN1 CLK_div_10_mag_0.Q0 VSS.t14 VSS.t13 nfet_03v3 ad=0.152p pd=1.64u as=0.152p ps=1.64u w=0.22u l=0.28u
X58 a_7568_n338# CLK_div_10_mag_0.Q1 a_7408_n338# VSS.t117 nfet_03v3 ad=0.172p pd=1.18u as=0.172p ps=1.18u w=0.66u l=0.28u
X59 CLK_DIV_11_mag_new_0.JK_FF_mag_1.nand3_mag_1.OUT CLK_DIV_11_mag_new_0.JK_FF_mag_1.nand3_mag_1.IN1 a_5035_1632# VSS.t304 nfet_03v3 ad=0.29p pd=2.2u as=0.172p ps=1.18u w=0.66u l=0.28u
X60 CLK_div_10_mag_0.Q3 CLK_div_10_mag_0.JK_FF_mag_2.K.t3 a_12277_n338# VSS.t19 nfet_03v3 ad=0.194p pd=1.76u as=0.114p ps=0.96u w=0.44u l=0.28u
X61 CLK_div_10_mag_0.JK_FF_mag_3.nand2_mag_4.IN2 CLK_div_10_mag_0.JK_FF_mag_3.nand3_mag_1.OUT VDD.t49 VDD.t48 pfet_03v3 ad=0.208p pd=1.32u as=0.352p ps=2.48u w=0.8u l=0.28u
X62 a_11149_n338# CLK_div_10_mag_0.JK_FF_mag_0.nand3_mag_0.OUT VSS.t190 VSS.t19 nfet_03v3 ad=0.114p pd=0.96u as=0.194p ps=1.76u w=0.44u l=0.28u
X63 CLK_DIV_11_mag_new_0.JK_FF_mag_0.nand2_mag_3.IN1 CLK.t3 VDD.t43 VDD.t42 pfet_03v3 ad=0.352p pd=2.48u as=0.352p ps=2.48u w=0.8u l=0.28u
X64 CLK_div_10_mag_0.JK_FF_mag_3.nand3_mag_1.IN1 CLK_div_10_mag_0.JK_FF_mag_3.nand3_mag_1.OUT a_8132_n338# VSS.t33 nfet_03v3 ad=0.194p pd=1.76u as=0.114p ps=0.96u w=0.44u l=0.28u
X65 CLK_DIV_11_mag_new_0.JK_FF_mag_0.nand3_mag_0.OUT CLK_DIV_11_mag_new_0.JK_FF_mag_0.K VDD.t281 VDD.t280 pfet_03v3 ad=0.208p pd=1.32u as=0.352p ps=2.48u w=0.8u l=0.28u
X66 VDD CLK_div_10_mag_0.Q0 CLK_div_10_mag_0.JK_FF_mag_2.nand3_mag_2.OUT VDD.t22 pfet_03v3 ad=0.208p pd=1.32u as=0.208p ps=1.32u w=0.8u l=0.28u
X67 CLK_DIV_11_mag_new_0.or_2_mag_1.IN1 CLK_DIV_11_mag_new_0.and2_mag_2.GF_INV_MAG_0.IN VSS.t306 VSS.t305 nfet_03v3 ad=0.152p pd=1.64u as=0.152p ps=1.64u w=0.22u l=0.28u
X68 CLK_div_10_mag_0.JK_FF_mag_3.nand3_mag_0.OUT CLK_div_10_mag_0.JK_FF_mag_3.QB VDD.t209 VDD.t208 pfet_03v3 ad=0.352p pd=2.48u as=0.208p ps=1.32u w=0.8u l=0.28u
X69 CLK_div_10_mag_0.JK_FF_mag_2.K CLK_div_10_mag_0.Q3 a_12431_759# VSS.t106 nfet_03v3 ad=0.194p pd=1.76u as=0.114p ps=0.96u w=0.44u l=0.28u
X70 a_11718_2771# CLK_DIV_11_mag_new_0.JK_FF_mag_3.nand3_mag_1.IN1 VSS.t232 VSS.t231 nfet_03v3 ad=0.114p pd=0.96u as=0.194p ps=1.76u w=0.44u l=0.28u
X71 CLK_DIV_11_mag_new_0.JK_FF_mag_2.K CLK_DIV_11_mag_new_0.or_2_mag_1.GF_INV_MAG_1.IN VSS.t75 VSS.t74 nfet_03v3 ad=0.152p pd=1.64u as=0.152p ps=1.64u w=0.22u l=0.28u
X72 a_8286_759# RST.t2 a_8126_759# VSS.t238 nfet_03v3 ad=0.172p pd=1.18u as=0.172p ps=1.18u w=0.66u l=0.28u
X73 CLK_div_10_mag_0.JK_FF_mag_1.nand3_mag_1.OUT CLK_div_10_mag_0.JK_FF_mag_1.nand3_mag_1.IN1 VDD.t39 VDD.t38 pfet_03v3 ad=0.352p pd=2.48u as=0.208p ps=1.32u w=0.8u l=0.28u
X74 a_12277_n338# CLK_div_10_mag_0.JK_FF_mag_0.nand2_mag_1.IN2 VSS.t20 VSS.t19 nfet_03v3 ad=0.114p pd=0.96u as=0.194p ps=1.76u w=0.44u l=0.28u
X75 CLK_DIV_11_mag_new_0.JK_FF_mag_2.nand3_mag_1.OUT CLK_DIV_11_mag_new_0.JK_FF_mag_2.nand3_mag_2.OUT VDD.t84 VDD.t83 pfet_03v3 ad=0.208p pd=1.32u as=0.352p ps=2.48u w=0.8u l=0.28u
X76 CLK_DIV_11_mag_new_0.JK_FF_mag_1.nand3_mag_0.OUT CLK_DIV_11_mag_new_0.JK_FF_mag_1.QB a_4317_2729# VSS.t220 nfet_03v3 ad=0.29p pd=2.2u as=0.172p ps=1.18u w=0.66u l=0.28u
X77 CLK_DIV_11_mag_new_0.Q0 CLK_DIV_11_mag_new_0.JK_FF_mag_3.QB a_12282_2771# VSS.t187 nfet_03v3 ad=0.194p pd=1.76u as=0.114p ps=0.96u w=0.44u l=0.28u
X78 a_3226_n338# CLK_div_10_mag_0.JK_FF_mag_1.nand2_mag_1.IN2 VSS.t199 VSS.t198 nfet_03v3 ad=0.114p pd=0.96u as=0.194p ps=1.76u w=0.44u l=0.28u
X79 CLK_DIV_11_mag_new_0.JK_FF_mag_2.nand3_mag_1.OUT CLK_DIV_11_mag_new_0.JK_FF_mag_2.nand3_mag_1.IN1 VDD.t307 VDD.t306 pfet_03v3 ad=0.352p pd=2.48u as=0.208p ps=1.32u w=0.8u l=0.28u
X80 VDD CLK_div_10_mag_0.JK_FF_mag_3.nand2_mag_3.IN1 CLK_div_10_mag_0.JK_FF_mag_3.nand2_mag_1.IN2 VDD.t109 pfet_03v3 ad=0.352p pd=2.48u as=0.208p ps=1.32u w=0.8u l=0.28u
X81 a_11154_2771# CLK_DIV_11_mag_new_0.JK_FF_mag_3.nand3_mag_0.OUT VSS.t22 VSS.t21 nfet_03v3 ad=0.114p pd=0.96u as=0.194p ps=1.76u w=0.44u l=0.28u
X82 CLK_DIV_11_mag_new_0.JK_FF_mag_2.nand2_mag_4.IN2 CLK_DIV_11_mag_new_0.JK_FF_mag_2.nand3_mag_1.OUT VDD.t89 VDD.t88 pfet_03v3 ad=0.208p pd=1.32u as=0.352p ps=2.48u w=0.8u l=0.28u
X83 a_1022_2731# CLK_DIV_11_mag_new_0.JK_FF_mag_0.K VSS.t161 VSS.t160 nfet_03v3 ad=0.172p pd=1.18u as=0.29p ps=2.2u w=0.66u l=0.28u
X84 CLK_div_10_mag_0.JK_FF_mag_2.nand3_mag_0.OUT CLK_div_10_mag_0.JK_FF_mag_2.QB a_4551_n338# VSS.t175 nfet_03v3 ad=0.29p pd=2.2u as=0.172p ps=1.18u w=0.66u l=0.28u
X85 VDD CLK_div_10_mag_0.Q1 CLK_div_10_mag_0.JK_FF_mag_3.nand3_mag_0.OUT VDD.t179 pfet_03v3 ad=0.208p pd=1.32u as=0.208p ps=1.32u w=0.8u l=0.28u
X86 VDD CLK.t4 CLK_DIV_11_mag_new_0.JK_FF_mag_2.nand3_mag_2.OUT VDD.t194 pfet_03v3 ad=0.208p pd=1.32u as=0.208p ps=1.32u w=0.8u l=0.28u
X87 VDD CLK_div_10_mag_0.JK_FF_mag_2.K.t4 CLK_div_10_mag_0.Q3 VDD.t185 pfet_03v3 ad=0.352p pd=2.48u as=0.208p ps=1.32u w=0.8u l=0.28u
X88 CLK_div_10_mag_0.JK_FF_mag_0.nand3_mag_1.IN1 CLK_div_10_mag_0.JK_FF_mag_0.nand3_mag_0.OUT VDD.t323 VDD.t322 pfet_03v3 ad=0.208p pd=1.32u as=0.352p ps=2.48u w=0.8u l=0.28u
X89 VDD CLK_div_10_mag_0.JK_FF_mag_3.nand3_mag_1.OUT CLK_div_10_mag_0.JK_FF_mag_3.nand3_mag_1.IN1 VDD.t46 pfet_03v3 ad=0.352p pd=2.48u as=0.208p ps=1.32u w=0.8u l=0.28u
X90 CLK_div_10_mag_0.JK_FF_mag_3.nand3_mag_2.OUT VDD.t265 VDD.t267 VDD.t266 pfet_03v3 ad=0.208p pd=1.32u as=0.352p ps=2.48u w=0.8u l=0.28u
X91 a_12282_2771# CLK_DIV_11_mag_new_0.JK_FF_mag_3.nand2_mag_1.IN2 VSS.t197 VSS.t196 nfet_03v3 ad=0.114p pd=0.96u as=0.194p ps=1.76u w=0.44u l=0.28u
X92 CLK_div_10_mag_0.JK_FF_mag_1.QB CLK_div_10_mag_0.Q0 a_3380_759# VSS.t12 nfet_03v3 ad=0.194p pd=1.76u as=0.114p ps=0.96u w=0.44u l=0.28u
X93 a_7989_1634# CLK_DIV_11_mag_new_0.JK_FF_mag_2.nand3_mag_2.OUT VSS.t48 VSS.t47 nfet_03v3 ad=0.172p pd=1.18u as=0.29p ps=2.2u w=0.66u l=0.28u
X94 VDD RST.t3 CLK_div_10_mag_0.JK_FF_mag_2.nand3_mag_1.OUT VDD.t390 pfet_03v3 ad=0.208p pd=1.32u as=0.208p ps=1.32u w=0.8u l=0.28u
X95 CLK_DIV_11_mag_new_0.JK_FF_mag_2.nand3_mag_1.OUT CLK_DIV_11_mag_new_0.JK_FF_mag_2.nand3_mag_1.IN1 a_8149_1634# VSS.t180 nfet_03v3 ad=0.29p pd=2.2u as=0.172p ps=1.18u w=0.66u l=0.28u
X96 CLK_div_10_mag_0.and2_mag_2.GF_INV_MAG_0.IN CLK_div_10_mag_0.Q1 a_9282_n1435# VSS.t37 nfet_03v3 ad=0.194p pd=1.76u as=0.114p ps=0.96u w=0.44u l=0.28u
X97 a_1746_2775# CLK_DIV_11_mag_new_0.JK_FF_mag_0.nand3_mag_0.OUT VSS.t301 VSS.t300 nfet_03v3 ad=0.114p pd=0.96u as=0.194p ps=1.76u w=0.44u l=0.28u
X98 CLK_DIV_11_mag_new_0.JK_FF_mag_1.nand2_mag_4.IN2 CLK_DIV_11_mag_new_0.JK_FF_mag_1.nand2_mag_3.IN1 a_5599_1676# VSS.t78 nfet_03v3 ad=0.194p pd=1.76u as=0.114p ps=0.96u w=0.44u l=0.28u
X99 CLK_div_10_mag_0.Q3 CLK_div_10_mag_0.JK_FF_mag_0.nand2_mag_1.IN2 VDD.t33 VDD.t32 pfet_03v3 ad=0.208p pd=1.32u as=0.352p ps=2.48u w=0.8u l=0.28u
X100 CLK_DIV_11_mag_new_0.JK_FF_mag_2.nand3_mag_2.OUT CLK_DIV_11_mag_new_0.JK_FF_mag_2.K VDD.t473 VDD.t472 pfet_03v3 ad=0.208p pd=1.32u as=0.352p ps=2.48u w=0.8u l=0.28u
X101 CLK_div_10_mag_0.and2_mag_1.OUT CLK_div_10_mag_0.and2_mag_1.GF_INV_MAG_0.IN VDD.t341 VDD.t340 pfet_03v3 ad=0.352p pd=2.48u as=0.352p ps=2.48u w=0.8u l=0.28u
X102 CLK_DIV_11_mag_new_0.and2_mag_3.IN1 CLK_DIV_11_mag_new_0.Buffer_delayed_mag_0.Inverter_delayed_mag_0.IN VDD.t303 VDD.t302 pfet_03v3 ad=0.352p pd=2.48u as=0.352p ps=2.48u w=0.8u l=1u
X103 a_7425_1634# CLK.t5 a_7265_1634# VSS.t123 nfet_03v3 ad=0.172p pd=1.18u as=0.172p ps=1.18u w=0.66u l=0.28u
X104 CLK_div_10_mag_0.JK_FF_mag_2.nand2_mag_3.IN1 CLK_div_10_mag_0.Q0 VDD.t21 VDD.t20 pfet_03v3 ad=0.352p pd=2.48u as=0.352p ps=2.48u w=0.8u l=0.28u
X105 CLK_div_10_mag_0.Q0 CLK_div_10_mag_0.JK_FF_mag_1.nand2_mag_1.IN2 VDD.t337 VDD.t336 pfet_03v3 ad=0.208p pd=1.32u as=0.352p ps=2.48u w=0.8u l=0.28u
X106 CLK_div_10_mag_0.JK_FF_mag_2.nand3_mag_1.IN1 CLK_div_10_mag_0.JK_FF_mag_2.nand3_mag_1.OUT a_5115_n338# VSS.t157 nfet_03v3 ad=0.194p pd=1.76u as=0.114p ps=0.96u w=0.44u l=0.28u
X107 VDD CLK_div_10_mag_0.Q2 CLK_div_10_mag_0.JK_FF_mag_3.QB VDD.t70 pfet_03v3 ad=0.352p pd=2.48u as=0.208p ps=1.32u w=0.8u l=0.28u
X108 a_9506_4996# CLK_DIV_11_mag_new_0.and2_mag_3.OUT a_9346_4996# VDD.t422 pfet_03v3 ad=0.624p pd=2.92u as=0.624p ps=2.92u w=2.4u l=0.28u
X109 CLK_DIV_11_mag_new_0.JK_FF_mag_2.nand2_mag_3.IN1 CLK.t6 VDD.t198 VDD.t197 pfet_03v3 ad=0.352p pd=2.48u as=0.352p ps=2.48u w=0.8u l=0.28u
X110 CLK_div_10_mag_0.JK_FF_mag_2.nand3_mag_0.OUT CLK_div_10_mag_0.JK_FF_mag_2.QB VDD.t301 VDD.t300 pfet_03v3 ad=0.352p pd=2.48u as=0.208p ps=1.32u w=0.8u l=0.28u
X111 CLK_div_10_mag_0.JK_FF_mag_0.nand3_mag_1.OUT CLK_div_10_mag_0.JK_FF_mag_0.nand3_mag_2.OUT VDD.t240 VDD.t239 pfet_03v3 ad=0.208p pd=1.32u as=0.352p ps=2.48u w=0.8u l=0.28u
X112 CLK_div_10_mag_0.and2_mag_0.GF_INV_MAG_0.IN CLK_div_10_mag_0.Q2 a_8314_n1435# VSS.t37 nfet_03v3 ad=0.194p pd=1.76u as=0.114p ps=0.96u w=0.44u l=0.28u
X113 Vdiv110 CLK_div_10_mag_0.nor_3_mag_0.IN3 VSS.t201 VSS.t200 nfet_03v3 ad=86.8f pd=0.92u as=0.152p ps=1.64u w=0.22u l=0.28u
X114 CLK_DIV_11_mag_new_0.JK_FF_mag_2.nand3_mag_0.OUT CLK_DIV_11_mag_new_0.or_2_mag_3.IN1.t3 VDD.t128 VDD.t127 pfet_03v3 ad=0.352p pd=2.48u as=0.208p ps=1.32u w=0.8u l=0.28u
X115 CLK_DIV_11_mag_new_0.and2_mag_3.IN1 CLK_DIV_11_mag_new_0.Buffer_delayed_mag_0.Inverter_delayed_mag_0.IN VSS.t177 VSS.t176 nfet_03v3 ad=0.152p pd=1.64u as=0.152p ps=1.64u w=0.22u l=1u
X116 CLK_div_10_mag_0.JK_FF_mag_3.nand2_mag_4.IN2 CLK_div_10_mag_0.JK_FF_mag_3.nand2_mag_3.IN1 a_8850_759# VSS.t62 nfet_03v3 ad=0.194p pd=1.76u as=0.114p ps=0.96u w=0.44u l=0.28u
X117 CLK_DIV_11_mag_new_0.JK_FF_mag_2.nand3_mag_1.IN1 CLK_DIV_11_mag_new_0.JK_FF_mag_2.nand3_mag_0.OUT VDD.t421 VDD.t420 pfet_03v3 ad=0.208p pd=1.32u as=0.352p ps=2.48u w=0.8u l=0.28u
X118 CLK_DIV_11_mag_new_0.nand3_mag_1.OUT CLK_DIV_11_mag_new_0.and2_mag_3.IN1 VDD.t348 VDD.t347 pfet_03v3 ad=0.208p pd=1.32u as=0.352p ps=2.48u w=0.8u l=0.28u
X119 a_6397_759# CLK_div_10_mag_0.JK_FF_mag_2.nand2_mag_4.IN2 VSS.t137 VSS.t136 nfet_03v3 ad=0.114p pd=0.96u as=0.194p ps=1.76u w=0.44u l=0.28u
X120 a_7265_1634# CLK_DIV_11_mag_new_0.JK_FF_mag_2.K VSS.t299 VSS.t298 nfet_03v3 ad=0.172p pd=1.18u as=0.29p ps=2.2u w=0.66u l=0.28u
X121 a_n1755_2260# CLK_DIV_11_mag_new_0.Q1 VSS.t218 VSS.t217 nfet_03v3 ad=0.114p pd=0.96u as=0.194p ps=1.76u w=0.44u l=0.28u
X122 a_2310_2775# CLK_DIV_11_mag_new_0.JK_FF_mag_0.nand3_mag_1.IN1 VSS.t56 VSS.t55 nfet_03v3 ad=0.114p pd=0.96u as=0.194p ps=1.76u w=0.44u l=0.28u
X123 CLK_div_10_mag_0.nor_3_mag_0.IN3 CLK_div_10_mag_0.Buffer_delayed_mag_0.Inverter_delayed_mag_0.IN VSS.t247 VSS.t246 nfet_03v3 ad=0.152p pd=1.64u as=0.152p ps=1.64u w=0.22u l=1u
X124 CLK_div_10_mag_0.JK_FF_mag_2.nand3_mag_2.OUT CLK_div_10_mag_0.Q1 a_4545_759# VSS.t116 nfet_03v3 ad=0.29p pd=2.2u as=0.172p ps=1.18u w=0.66u l=0.28u
X125 a_2092_759# CLK_div_10_mag_0.JK_FF_mag_1.nand3_mag_2.OUT VSS.t243 VSS.t242 nfet_03v3 ad=0.172p pd=1.18u as=0.29p ps=2.2u w=0.66u l=0.28u
X126 VDD CLK_DIV_11_mag_new_0.and2_mag_3.IN1 CLK_DIV_11_mag_new_0.and2_mag_3.GF_INV_MAG_0.IN VDD.t344 pfet_03v3 ad=0.352p pd=2.48u as=0.208p ps=1.32u w=0.8u l=0.28u
X127 VDD CLK_div_10_mag_0.Q1 CLK_div_10_mag_0.and2_mag_2.GF_INV_MAG_0.IN VDD.t176 pfet_03v3 ad=0.352p pd=2.48u as=0.208p ps=1.32u w=0.8u l=0.28u
X128 VDD CLK_DIV_11_mag_new_0.JK_FF_mag_3.nand2_mag_3.IN1 CLK_DIV_11_mag_new_0.JK_FF_mag_3.nand2_mag_4.IN2 VDD.t93 pfet_03v3 ad=0.352p pd=2.48u as=0.208p ps=1.32u w=0.8u l=0.28u
X129 CLK_div_10_mag_0.JK_FF_mag_1.nand3_mag_0.OUT CLK_div_10_mag_0.JK_FF_mag_1.QB a_1534_n338# VSS.t295 nfet_03v3 ad=0.29p pd=2.2u as=0.172p ps=1.18u w=0.66u l=0.28u
X130 a_11867_759# CLK_div_10_mag_0.JK_FF_mag_0.nand3_mag_1.OUT VSS.t80 VSS.t79 nfet_03v3 ad=0.114p pd=0.96u as=0.194p ps=1.76u w=0.44u l=0.28u
X131 CLK_DIV_11_mag_new_0.JK_FF_mag_3.nand3_mag_2.OUT CLK_DIV_11_mag_new_0.Q0 VDD.t151 VDD.t150 pfet_03v3 ad=0.352p pd=2.48u as=0.208p ps=1.32u w=0.8u l=0.28u
X132 VDD CLK_div_10_mag_0.JK_FF_mag_2.nand3_mag_1.OUT CLK_div_10_mag_0.JK_FF_mag_2.nand3_mag_1.IN1 VDD.t275 pfet_03v3 ad=0.352p pd=2.48u as=0.208p ps=1.32u w=0.8u l=0.28u
X133 CLK_div_10_mag_0.JK_FF_mag_1.nand3_mag_2.OUT CLK_div_10_mag_0.Q0 VDD.t19 VDD.t18 pfet_03v3 ad=0.352p pd=2.48u as=0.208p ps=1.32u w=0.8u l=0.28u
X134 CLK_DIV_11_mag_new_0.JK_FF_mag_2.nand3_mag_0.OUT CLK_DIV_11_mag_new_0.or_2_mag_3.IN1.t4 a_7431_2731# VSS.t76 nfet_03v3 ad=0.29p pd=2.2u as=0.172p ps=1.18u w=0.66u l=0.28u
X135 a_5744_4934# CLK_DIV_11_mag_new_0.and2_mag_3.IN1 VSS.t208 VSS.t207 nfet_03v3 ad=0.172p pd=1.18u as=0.29p ps=2.2u w=0.66u l=0.28u
X136 CLK_DIV_11_mag_new_0.JK_FF_mag_3.nand3_mag_1.OUT CLK_DIV_11_mag_new_0.JK_FF_mag_3.nand3_mag_1.IN1 VDD.t379 VDD.t378 pfet_03v3 ad=0.352p pd=2.48u as=0.208p ps=1.32u w=0.8u l=0.28u
X137 VDD CLK_div_10_mag_0.Q2 CLK_div_10_mag_0.and2_mag_0.GF_INV_MAG_0.IN VDD.t67 pfet_03v3 ad=0.352p pd=2.48u as=0.208p ps=1.32u w=0.8u l=0.28u
X138 CLK_div_10_mag_0.JK_FF_mag_3.nand3_mag_1.OUT CLK_div_10_mag_0.JK_FF_mag_3.nand3_mag_1.IN1 a_8286_759# VSS.t256 nfet_03v3 ad=0.29p pd=2.2u as=0.172p ps=1.18u w=0.66u l=0.28u
X139 VDD CLK_div_10_mag_0.JK_FF_mag_2.nand2_mag_3.IN1 CLK_div_10_mag_0.JK_FF_mag_2.nand2_mag_4.IN2 VDD.t443 pfet_03v3 ad=0.352p pd=2.48u as=0.208p ps=1.32u w=0.8u l=0.28u
X140 CLK_DIV_11_mag_new_0.JK_FF_mag_3.nand2_mag_4.IN2 CLK_DIV_11_mag_new_0.JK_FF_mag_3.nand3_mag_1.OUT VDD.t296 VDD.t295 pfet_03v3 ad=0.208p pd=1.32u as=0.352p ps=2.48u w=0.8u l=0.28u
X141 CLK_DIV_11_mag_new_0.nor_3_mag_0.IN3 CLK_DIV_11_mag_new_0.Buffer_delayed_mag_1.Inverter_delayed_mag_0.IN VDD.t453 VDD.t452 pfet_03v3 ad=0.352p pd=2.48u as=0.352p ps=2.48u w=0.8u l=1u
X142 CLK_div_10_mag_0.JK_FF_mag_1.QB CLK_div_10_mag_0.JK_FF_mag_1.nand2_mag_4.IN2 VDD.t45 VDD.t44 pfet_03v3 ad=0.208p pd=1.32u as=0.352p ps=2.48u w=0.8u l=0.28u
X143 VDD CLK.t7 CLK_DIV_11_mag_new_0.JK_FF_mag_3.nand3_mag_2.OUT VDD.t199 pfet_03v3 ad=0.208p pd=1.32u as=0.208p ps=1.32u w=0.8u l=0.28u
X144 CLK_DIV_11_mag_new_0.JK_FF_mag_1.nand2_mag_4.IN2 CLK_DIV_11_mag_new_0.JK_FF_mag_1.nand3_mag_1.OUT VDD.t234 VDD.t233 pfet_03v3 ad=0.208p pd=1.32u as=0.352p ps=2.48u w=0.8u l=0.28u
X145 a_7562_759# CLK_div_10_mag_0.Q1 a_7402_759# VSS.t115 nfet_03v3 ad=0.172p pd=1.18u as=0.172p ps=1.18u w=0.66u l=0.28u
X146 CLK_DIV_11_mag_new_0.JK_FF_mag_3.nand3_mag_2.OUT CLK_DIV_11_mag_new_0.Q0 a_10584_1630# VSS.t87 nfet_03v3 ad=0.29p pd=2.2u as=0.172p ps=1.18u w=0.66u l=0.28u
X147 CLK_DIV_11_mag_new_0.Buffer_delayed_mag_0.Inverter_delayed_mag_0.IN CLK_DIV_11_mag_new_0.Q2 VDD.t429 VDD.t428 pfet_03v3 ad=0.352p pd=2.48u as=0.352p ps=2.48u w=0.8u l=1u
X148 VDD CLK.t8 CLK_DIV_11_mag_new_0.JK_FF_mag_1.nand3_mag_2.OUT VDD.t202 pfet_03v3 ad=0.208p pd=1.32u as=0.208p ps=1.32u w=0.8u l=0.28u
X149 a_2816_759# CLK_div_10_mag_0.JK_FF_mag_1.nand3_mag_1.OUT VSS.t18 VSS.t17 nfet_03v3 ad=0.114p pd=0.96u as=0.194p ps=1.76u w=0.44u l=0.28u
X150 a_8713_1678# CLK_DIV_11_mag_new_0.JK_FF_mag_2.nand3_mag_1.OUT VSS.t51 VSS.t50 nfet_03v3 ad=0.114p pd=0.96u as=0.194p ps=1.76u w=0.44u l=0.28u
X151 VDD CLK_DIV_11_mag_new_0.Q2 CLK_DIV_11_mag_new_0.JK_FF_mag_1.QB VDD.t425 pfet_03v3 ad=0.352p pd=2.48u as=0.208p ps=1.32u w=0.8u l=0.28u
X152 CLK_div_10_mag_0.JK_FF_mag_1.nand3_mag_0.OUT CLK_div_10_mag_0.JK_FF_mag_1.QB VDD.t466 VDD.t465 pfet_03v3 ad=0.352p pd=2.48u as=0.208p ps=1.32u w=0.8u l=0.28u
X153 CLK_div_10_mag_0.JK_FF_mag_0.K CLK_div_10_mag_0.and2_mag_2.GF_INV_MAG_0.IN VSS.t133 VSS.t132 nfet_03v3 ad=0.152p pd=1.64u as=0.152p ps=1.64u w=0.22u l=0.28u
X154 CLK_DIV_11_mag_new_0.JK_FF_mag_3.nand3_mag_0.OUT CLK_DIV_11_mag_new_0.JK_FF_mag_3.QB VDD.t319 VDD.t318 pfet_03v3 ad=0.352p pd=2.48u as=0.208p ps=1.32u w=0.8u l=0.28u
X155 CLK_DIV_11_mag_new_0.nand3_mag_0.OUT CLK_DIV_11_mag_new_0.Q1 VDD.t363 VDD.t351 pfet_03v3 ad=0.208p pd=1.32u as=0.352p ps=2.48u w=0.8u l=0.28u
X156 CLK_DIV_11_mag_new_0.JK_FF_mag_3.nand3_mag_1.OUT CLK_DIV_11_mag_new_0.JK_FF_mag_3.nand3_mag_1.IN1 a_11308_1630# VSS.t230 nfet_03v3 ad=0.29p pd=2.2u as=0.172p ps=1.18u w=0.66u l=0.28u
X157 a_n1755_3762# CLK_DIV_11_mag_new_0.Q1 VSS.t216 VSS.t215 nfet_03v3 ad=0.172p pd=1.18u as=0.29p ps=2.2u w=0.66u l=0.28u
X158 CLK_DIV_11_mag_new_0.Buffer_delayed_mag_0.Inverter_delayed_mag_0.IN CLK_DIV_11_mag_new_0.Q2 VSS.t264 VSS.t263 nfet_03v3 ad=0.152p pd=1.64u as=0.152p ps=1.64u w=0.22u l=1u
X159 CLK_DIV_11_mag_new_0.or_2_mag_0.IN1 CLK_DIV_11_mag_new_0.and2_mag_0.GF_INV_MAG_0.IN VSS.t273 VSS.t272 nfet_03v3 ad=0.152p pd=1.64u as=0.152p ps=1.64u w=0.22u l=0.28u
X160 a_10584_1630# CLK.t9 a_10424_1630# VSS.t124 nfet_03v3 ad=0.172p pd=1.18u as=0.172p ps=1.18u w=0.66u l=0.28u
X161 CLK_div_10_mag_0.nor_3_mag_0.IN3 CLK_div_10_mag_0.Buffer_delayed_mag_0.Inverter_delayed_mag_0.IN VDD.t404 VDD.t403 pfet_03v3 ad=0.352p pd=2.48u as=0.352p ps=2.48u w=0.8u l=1u
X162 CLK_div_10_mag_0.JK_FF_mag_2.nand3_mag_1.OUT CLK_div_10_mag_0.JK_FF_mag_2.nand3_mag_1.IN1 VDD.t103 VDD.t102 pfet_03v3 ad=0.352p pd=2.48u as=0.208p ps=1.32u w=0.8u l=0.28u
X163 CLK_DIV_11_mag_new_0.JK_FF_mag_0.nand2_mag_3.IN1 CLK.t10 VSS.t70 VSS.t69 nfet_03v3 ad=0.152p pd=1.64u as=0.152p ps=1.64u w=0.22u l=0.28u
X164 VDD CLK_DIV_11_mag_new_0.JK_FF_mag_1.nand3_mag_1.OUT CLK_DIV_11_mag_new_0.JK_FF_mag_1.nand3_mag_1.IN1 VDD.t230 pfet_03v3 ad=0.352p pd=2.48u as=0.208p ps=1.32u w=0.8u l=0.28u
X165 VDD CLK_DIV_11_mag_new_0.JK_FF_mag_3.nand2_mag_3.IN1 CLK_DIV_11_mag_new_0.JK_FF_mag_3.nand2_mag_1.IN2 VDD.t90 pfet_03v3 ad=0.352p pd=2.48u as=0.208p ps=1.32u w=0.8u l=0.28u
X166 CLK_div_10_mag_0.and2_mag_0.OUT CLK_div_10_mag_0.and2_mag_0.GF_INV_MAG_0.IN VSS.t222 VSS.t221 nfet_03v3 ad=0.152p pd=1.64u as=0.152p ps=1.64u w=0.22u l=0.28u
X167 a_4311_1632# CLK.t11 a_4151_1632# VSS.t71 nfet_03v3 ad=0.172p pd=1.18u as=0.172p ps=1.18u w=0.66u l=0.28u
X168 a_11303_759# RST.t4 a_11143_759# VSS.t239 nfet_03v3 ad=0.172p pd=1.18u as=0.172p ps=1.18u w=0.66u l=0.28u
X169 CLK_DIV_11_mag_new_0.JK_FF_mag_1.QB CLK_DIV_11_mag_new_0.JK_FF_mag_1.nand2_mag_4.IN2 VDD.t285 VDD.t284 pfet_03v3 ad=0.208p pd=1.32u as=0.352p ps=2.48u w=0.8u l=0.28u
X170 CLK_DIV_11_mag_new_0.JK_FF_mag_1.nand2_mag_3.IN1 CLK.t12 VDD.t121 VDD.t120 pfet_03v3 ad=0.352p pd=2.48u as=0.352p ps=2.48u w=0.8u l=0.28u
X171 VDD RST.t5 CLK_DIV_11_mag_new_0.JK_FF_mag_0.nand3_mag_1.OUT VDD.t51 pfet_03v3 ad=0.208p pd=1.32u as=0.208p ps=1.32u w=0.8u l=0.28u
X172 CLK_DIV_11_mag_new_0.Buffer_delayed_mag_1.Inverter_delayed_mag_0.IN CLK_DIV_11_mag_new_0.GF_INV_MAG_1.OUT VSS.t168 VSS.t167 nfet_03v3 ad=0.152p pd=1.64u as=0.152p ps=1.64u w=0.22u l=1u
X173 CLK_div_10_mag_0.JK_FF_mag_0.nand3_mag_2.OUT VDD.t262 VDD.t264 VDD.t263 pfet_03v3 ad=0.208p pd=1.32u as=0.352p ps=2.48u w=0.8u l=0.28u
X174 VDD CLK.t13 CLK_DIV_11_mag_new_0.JK_FF_mag_3.nand3_mag_0.OUT VDD.t122 pfet_03v3 ad=0.208p pd=1.32u as=0.208p ps=1.32u w=0.8u l=0.28u
X175 a_8696_n338# CLK_div_10_mag_0.JK_FF_mag_3.nand3_mag_1.IN1 VSS.t255 VSS.t254 nfet_03v3 ad=0.114p pd=0.96u as=0.194p ps=1.76u w=0.44u l=0.28u
X176 VSS CLK_div_10_mag_0.and2_mag_0.OUT Vdiv110.t3 VSS.t289 nfet_03v3 ad=86.8f pd=0.92u as=86.8f ps=0.92u w=0.22u l=0.28u
X177 CLK_DIV_11_mag_new_0.JK_FF_mag_3.nand3_mag_0.OUT CLK_DIV_11_mag_new_0.JK_FF_mag_3.QB a_10590_2727# VSS.t186 nfet_03v3 ad=0.29p pd=2.2u as=0.172p ps=1.18u w=0.66u l=0.28u
X178 a_7408_n338# VDD.t493 VSS.t94 VSS.t93 nfet_03v3 ad=0.172p pd=1.18u as=0.29p ps=2.2u w=0.66u l=0.28u
X179 VDD CLK_DIV_11_mag_new_0.JK_FF_mag_0.nand2_mag_3.IN1 CLK_DIV_11_mag_new_0.JK_FF_mag_0.nand2_mag_4.IN2 VDD.t400 pfet_03v3 ad=0.352p pd=2.48u as=0.208p ps=1.32u w=0.8u l=0.28u
X180 VDD CLK_DIV_11_mag_new_0.JK_FF_mag_3.nand3_mag_1.OUT CLK_DIV_11_mag_new_0.JK_FF_mag_3.nand3_mag_1.IN1 VDD.t292 pfet_03v3 ad=0.352p pd=2.48u as=0.208p ps=1.32u w=0.8u l=0.28u
X181 CLK_div_10_mag_0.Q2 CLK_div_10_mag_0.JK_FF_mag_3.QB a_9260_n338# VSS.t125 nfet_03v3 ad=0.194p pd=1.76u as=0.114p ps=0.96u w=0.44u l=0.28u
X182 CLK_DIV_11_mag_new_0.JK_FF_mag_1.nand3_mag_0.OUT CLK_DIV_11_mag_new_0.JK_FF_mag_1.QB VDD.t368 VDD.t367 pfet_03v3 ad=0.352p pd=2.48u as=0.208p ps=1.32u w=0.8u l=0.28u
X183 CLK_DIV_11_mag_new_0.JK_FF_mag_1.nand3_mag_1.IN1 CLK_DIV_11_mag_new_0.JK_FF_mag_1.nand3_mag_0.OUT VDD.t314 VDD.t313 pfet_03v3 ad=0.208p pd=1.32u as=0.352p ps=2.48u w=0.8u l=0.28u
X184 a_8132_n338# CLK_div_10_mag_0.JK_FF_mag_3.nand3_mag_0.OUT VSS.t154 VSS.t153 nfet_03v3 ad=0.114p pd=0.96u as=0.194p ps=1.76u w=0.44u l=0.28u
X185 a_1368_759# VDD.t494 VSS.t96 VSS.t95 nfet_03v3 ad=0.172p pd=1.18u as=0.29p ps=2.2u w=0.66u l=0.28u
X186 VDD CLK_div_10_mag_0.Q3 CLK_div_10_mag_0.JK_FF_mag_2.K.t1 VDD.t157 pfet_03v3 ad=0.352p pd=2.48u as=0.208p ps=1.32u w=0.8u l=0.28u
X187 a_7995_2775# CLK_DIV_11_mag_new_0.JK_FF_mag_2.nand3_mag_0.OUT VSS.t258 VSS.t257 nfet_03v3 ad=0.114p pd=0.96u as=0.194p ps=1.76u w=0.44u l=0.28u
X188 VDD CLK_DIV_11_mag_new_0.JK_FF_mag_1.nand2_mag_3.IN1 CLK_DIV_11_mag_new_0.JK_FF_mag_1.nand2_mag_1.IN2 VDD.t129 pfet_03v3 ad=0.352p pd=2.48u as=0.208p ps=1.32u w=0.8u l=0.28u
X189 a_1900_1634# RST.t6 a_1740_1634# VSS.t34 nfet_03v3 ad=0.172p pd=1.18u as=0.172p ps=1.18u w=0.66u l=0.28u
X190 a_10590_2727# CLK.t14 a_10430_2727# VSS.t72 nfet_03v3 ad=0.172p pd=1.18u as=0.172p ps=1.18u w=0.66u l=0.28u
X191 VDD RST.t7 CLK_div_10_mag_0.JK_FF_mag_3.nand3_mag_1.OUT VDD.t54 pfet_03v3 ad=0.208p pd=1.32u as=0.208p ps=1.32u w=0.8u l=0.28u