* NGSPICE file created from CLK_DIV_11_mag_new_flat.ext - technology: gf180mcuC

.subckt pex_CLK_div_11_mag_new VSS VDD Q0 Q1 RST Vdiv11 Q2 Q3 CLK
X0 VDD CLK.t0 JK_FF_mag_1.nand3_mag_2.OUT VDD.t215 pfet_03v3 ad=0.208p pd=1.32u as=0.208p ps=1.32u w=0.8u l=0.28u
X1 a_6046_4917# CLK.t1 a_5886_4917# VSS.t145 nfet_03v3 ad=0.172p pd=1.18u as=0.172p ps=1.18u w=0.66u l=0.28u
X2 JK_FF_mag_3.nand3_mag_2.OUT JK_FF_mag_3.K.t2 VDD.t133 VDD.t132 pfet_03v3 ad=0.208p pd=1.32u as=0.352p ps=2.48u w=0.8u l=0.28u
X3 JK_FF_mag_3.QB JK_FF_mag_3.nand2_mag_4.IN2 VDD.t157 VDD.t156 pfet_03v3 ad=0.208p pd=1.32u as=0.352p ps=2.48u w=0.8u l=0.28u
X4 and2_mag_3.OUT and2_mag_3.GF_INV_MAG_0.IN VDD.t153 VDD.t152 pfet_03v3 ad=0.352p pd=2.48u as=0.352p ps=2.48u w=0.8u l=0.28u
X5 JK_FF_mag_1.nand3_mag_2.OUT JK_FF_mag_1.K.t2 VDD.t139 VDD.t138 pfet_03v3 ad=0.208p pd=1.32u as=0.352p ps=2.48u w=0.8u l=0.28u
X6 JK_FF_mag_0.nand3_mag_2.OUT JK_FF_mag_0.K VDD.t227 VDD.t226 pfet_03v3 ad=0.208p pd=1.32u as=0.352p ps=2.48u w=0.8u l=0.28u
X7 JK_FF_mag_1.QB JK_FF_mag_1.nand2_mag_4.IN2 VDD.t21 VDD.t20 pfet_03v3 ad=0.208p pd=1.32u as=0.352p ps=2.48u w=0.8u l=0.28u
X8 a_2751_4915# JK_FF_mag_0.K VSS.t153 VSS.t152 nfet_03v3 ad=0.172p pd=1.18u as=0.29p ps=2.2u w=0.66u l=0.28u
X9 a_5886_4917# JK_FF_mag_1.K.t3 VSS.t96 VSS.t95 nfet_03v3 ad=0.172p pd=1.18u as=0.29p ps=2.2u w=0.66u l=0.28u
X10 a_7898_4917# JK_FF_mag_1.nand2_mag_4.IN2 VSS.t15 VSS.t14 nfet_03v3 ad=0.114p pd=0.96u as=0.194p ps=1.76u w=0.44u l=0.28u
X11 JK_FF_mag_1.nand3_mag_2.OUT Q2.t3 VDD.t221 VDD.t220 pfet_03v3 ad=0.352p pd=2.48u as=0.208p ps=1.32u w=0.8u l=0.28u
X12 JK_FF_mag_1.nand3_mag_1.OUT JK_FF_mag_1.nand3_mag_2.OUT VDD.t223 VDD.t222 pfet_03v3 ad=0.208p pd=1.32u as=0.352p ps=2.48u w=0.8u l=0.28u
X13 and2_mag_3.GF_INV_MAG_0.IN Q1.t3 VDD.t260 VDD.t259 pfet_03v3 ad=0.208p pd=1.32u as=0.352p ps=2.48u w=0.8u l=0.28u
X14 JK_FF_mag_1.nand3_mag_2.OUT Q2.t4 a_6046_4917# VSS.t10 nfet_03v3 ad=0.29p pd=2.2u as=0.172p ps=1.18u w=0.66u l=0.28u
X15 a_8344_1618# Q1.t4 VSS.t161 VSS.t160 nfet_03v3 ad=0.114p pd=0.96u as=0.194p ps=1.76u w=0.44u l=0.28u
X16 a_6610_4917# JK_FF_mag_1.nand3_mag_2.OUT VSS.t149 VSS.t148 nfet_03v3 ad=0.172p pd=1.18u as=0.29p ps=2.2u w=0.66u l=0.28u
X17 JK_FF_mag_1.nand2_mag_4.IN2 JK_FF_mag_1.nand3_mag_1.OUT VDD.t97 VDD.t96 pfet_03v3 ad=0.208p pd=1.32u as=0.352p ps=2.48u w=0.8u l=0.28u
X18 VDD Q1.t5 and2_mag_1.GF_INV_MAG_0.IN VDD.t240 pfet_03v3 ad=0.352p pd=2.48u as=0.208p ps=1.32u w=0.8u l=0.28u
X19 Q0 JK_FF_mag_3.nand2_mag_1.IN2 VDD.t246 VDD.t245 pfet_03v3 ad=0.208p pd=1.32u as=0.352p ps=2.48u w=0.8u l=0.28u
X20 a_14017_3822# JK_FF_mag_3.nand2_mag_1.IN2 VSS.t163 VSS.t162 nfet_03v3 ad=0.114p pd=0.96u as=0.194p ps=1.76u w=0.44u l=0.28u
X21 a_7334_4917# JK_FF_mag_1.nand3_mag_1.OUT VSS.t66 VSS.t65 nfet_03v3 ad=0.114p pd=0.96u as=0.194p ps=1.76u w=0.44u l=0.28u
X22 JK_FF_mag_0.nand2_mag_4.IN2 JK_FF_mag_0.nand3_mag_1.OUT VDD.t85 VDD.t84 pfet_03v3 ad=0.208p pd=1.32u as=0.352p ps=2.48u w=0.8u l=0.28u
X23 JK_FF_mag_2.K or_2_mag_1.GF_INV_MAG_1.IN VDD.t12 VDD.t11 pfet_03v3 ad=0.352p pd=2.48u as=0.352p ps=2.48u w=0.8u l=0.28u
X24 a_4199_4915# JK_FF_mag_0.nand3_mag_1.OUT VSS.t59 VSS.t58 nfet_03v3 ad=0.114p pd=0.96u as=0.194p ps=1.76u w=0.44u l=0.28u
X25 VDD Q2.t5 JK_FF_mag_1.QB VDD.t13 pfet_03v3 ad=0.352p pd=2.48u as=0.208p ps=1.32u w=0.8u l=0.28u
X26 JK_FF_mag_3.nand2_mag_1.IN2 JK_FF_mag_3.nand3_mag_1.IN1 VDD.t239 VDD.t238 pfet_03v3 ad=0.208p pd=1.32u as=0.352p ps=2.48u w=0.8u l=0.28u
X27 a_13453_3822# JK_FF_mag_3.nand3_mag_1.IN1 VSS.t159 VSS.t158 nfet_03v3 ad=0.114p pd=0.96u as=0.194p ps=1.76u w=0.44u l=0.28u
X28 JK_FF_mag_1.QB Q2.t6 a_7898_4917# VSS.t102 nfet_03v3 ad=0.194p pd=1.76u as=0.114p ps=0.96u w=0.44u l=0.28u
X29 and2_mag_1.GF_INV_MAG_0.IN Q0.t3 VDD.t78 VDD.t77 pfet_03v3 ad=0.208p pd=1.32u as=0.352p ps=2.48u w=0.8u l=0.28u
X30 or_2_mag_0.IN1 and2_mag_0.GF_INV_MAG_0.IN VDD.t151 VDD.t150 pfet_03v3 ad=0.352p pd=2.48u as=0.352p ps=2.48u w=0.8u l=0.28u
X31 VDD JK_FF_mag_3.QB Q0.t1 VDD.t65 pfet_03v3 ad=0.352p pd=2.48u as=0.208p ps=1.32u w=0.8u l=0.28u
X32 VDD CLK.t2 JK_FF_mag_1.nand3_mag_0.OUT VDD.t212 pfet_03v3 ad=0.208p pd=1.32u as=0.208p ps=1.32u w=0.8u l=0.28u
X33 Q0 JK_FF_mag_3.QB a_14017_3822# VSS.t50 nfet_03v3 ad=0.194p pd=1.76u as=0.114p ps=0.96u w=0.44u l=0.28u
X34 Buffer_delayed_mag_0.Inverter_delayed_mag_0.IN Q2.t7 VDD.t147 VDD.t146 pfet_03v3 ad=0.352p pd=2.48u as=0.352p ps=2.48u w=0.8u l=1u
X35 a_6052_3820# CLK.t3 a_5892_3820# VSS.t60 nfet_03v3 ad=0.172p pd=1.18u as=0.172p ps=1.18u w=0.66u l=0.28u
X36 JK_FF_mag_0.K or_2_mag_0.GF_INV_MAG_1.IN VDD.t37 VDD.t36 pfet_03v3 ad=0.352p pd=2.48u as=0.352p ps=2.48u w=0.8u l=0.28u
X37 VDD JK_FF_mag_1.nand3_mag_1.OUT JK_FF_mag_1.nand3_mag_1.IN1 VDD.t93 pfet_03v3 ad=0.352p pd=2.48u as=0.208p ps=1.32u w=0.8u l=0.28u
X38 a_2849_1480# or_2_mag_3.IN2 VDD.t108 VDD.t107 pfet_03v3 ad=0.416p pd=2.12u as=0.704p ps=4.08u w=1.6u l=0.28u
X39 JK_FF_mag_1.nand3_mag_1.IN1 JK_FF_mag_1.nand3_mag_1.OUT a_6616_3820# VSS.t0 nfet_03v3 ad=0.194p pd=1.76u as=0.114p ps=0.96u w=0.44u l=0.28u
X40 JK_FF_mag_1.nand2_mag_3.IN1 CLK.t4 VDD.t211 VDD.t210 pfet_03v3 ad=0.352p pd=2.48u as=0.352p ps=2.48u w=0.8u l=0.28u
X41 JK_FF_mag_1.nand3_mag_0.OUT JK_FF_mag_1.K.t4 VDD.t101 VDD.t100 pfet_03v3 ad=0.208p pd=1.32u as=0.352p ps=2.48u w=0.8u l=0.28u
X42 a_11241_1205# and2_mag_3.OUT a_11081_1205# VDD.t166 pfet_03v3 ad=0.624p pd=2.92u as=0.624p ps=2.92u w=2.4u l=0.28u
X43 VDD JK_FF_mag_1.QB Q2.t2 VDD.t88 pfet_03v3 ad=0.352p pd=2.48u as=0.208p ps=1.32u w=0.8u l=0.28u
X44 a_5892_3820# JK_FF_mag_1.K.t5 VSS.t71 VSS.t60 nfet_03v3 ad=0.172p pd=1.18u as=0.29p ps=2.2u w=0.66u l=0.28u
X45 Q2 JK_FF_mag_1.QB a_7744_3820# VSS.t0 nfet_03v3 ad=0.194p pd=1.76u as=0.114p ps=0.96u w=0.44u l=0.28u
X46 Q3 JK_FF_mag_0.nand2_mag_1.IN2 VDD.t264 VDD.t263 pfet_03v3 ad=0.208p pd=1.32u as=0.352p ps=2.48u w=0.8u l=0.28u
X47 Buffer_delayed_mag_0.Inverter_delayed_mag_0.IN Q2.t8 VSS.t100 VSS.t99 nfet_03v3 ad=0.152p pd=1.64u as=0.152p ps=1.64u w=0.22u l=1u
X48 JK_FF_mag_1.nand3_mag_0.OUT JK_FF_mag_1.QB VDD.t87 VDD.t86 pfet_03v3 ad=0.352p pd=2.48u as=0.208p ps=1.32u w=0.8u l=0.28u
X49 a_4609_3818# JK_FF_mag_0.nand2_mag_1.IN2 VSS.t169 VSS.t168 nfet_03v3 ad=0.114p pd=0.96u as=0.194p ps=1.76u w=0.44u l=0.28u
X50 JK_FF_mag_1.nand3_mag_0.OUT JK_FF_mag_1.QB a_6052_3820# VSS.t60 nfet_03v3 ad=0.29p pd=2.2u as=0.172p ps=1.18u w=0.66u l=0.28u
X51 a_11081_1205# nor_3_mag_0.IN3 VDD.t162 VDD.t161 pfet_03v3 ad=0.624p pd=2.92u as=1.06p ps=5.68u w=2.4u l=0.28u
X52 VSS or_2_mag_3.IN1.t3 or_2_mag_3.GF_INV_MAG_1.IN VSS.t74 nfet_03v3 ad=0.152p pd=1.64u as=86.8f ps=0.92u w=0.22u l=0.28u
X53 JK_FF_mag_2.nand3_mag_1.OUT JK_FF_mag_2.nand3_mag_1.IN1 VDD.t126 VDD.t125 pfet_03v3 ad=0.352p pd=2.48u as=0.208p ps=1.32u w=0.8u l=0.28u
X54 JK_FF_mag_2.nand3_mag_1.OUT JK_FF_mag_2.nand3_mag_1.IN1 a_9884_4915# VSS.t87 nfet_03v3 ad=0.29p pd=2.2u as=0.172p ps=1.18u w=0.66u l=0.28u
X55 VDD Q0.t4 nand3_mag_0.OUT VDD.t22 pfet_03v3 ad=0.208p pd=1.32u as=0.208p ps=1.32u w=0.8u l=0.28u
X56 JK_FF_mag_0.nand2_mag_3.IN1 CLK.t5 VSS.t144 VSS.t143 nfet_03v3 ad=0.152p pd=1.64u as=0.152p ps=1.64u w=0.22u l=0.28u
X57 JK_FF_mag_1.nand2_mag_3.IN1 CLK.t6 VSS.t142 VSS.t141 nfet_03v3 ad=0.152p pd=1.64u as=0.152p ps=1.64u w=0.22u l=0.28u
X58 or_2_mag_0.IN1 and2_mag_0.GF_INV_MAG_0.IN VSS.t104 VSS.t103 nfet_03v3 ad=0.152p pd=1.64u as=0.152p ps=1.64u w=0.22u l=0.28u
X59 VDD RST.t0 JK_FF_mag_2.nand3_mag_1.OUT VDD.t109 pfet_03v3 ad=0.208p pd=1.32u as=0.208p ps=1.32u w=0.8u l=0.28u
X60 a_9884_4915# RST.t1 a_9724_4915# VSS.t67 nfet_03v3 ad=0.172p pd=1.18u as=0.172p ps=1.18u w=0.66u l=0.28u
X61 JK_FF_mag_0.K or_2_mag_0.GF_INV_MAG_1.IN VSS.t30 VSS.t29 nfet_03v3 ad=0.152p pd=1.64u as=0.152p ps=1.64u w=0.22u l=0.28u
X62 nand3_mag_0.OUT Q2.t9 VDD.t258 VDD.t257 pfet_03v3 ad=0.352p pd=2.48u as=0.208p ps=1.32u w=0.8u l=0.28u
X63 or_2_mag_3.GF_INV_MAG_1.IN or_2_mag_3.IN2 VSS.t75 VSS.t74 nfet_03v3 ad=86.8f pd=0.92u as=0.152p ps=1.64u w=0.22u l=0.28u
X64 or_2_mag_0.GF_INV_MAG_1.IN or_2_mag_0.IN1 a_939_3715# VDD.t50 pfet_03v3 ad=0.704p pd=4.08u as=0.416p ps=2.12u w=1.6u l=0.28u
X65 Buffer_delayed_mag_1.Inverter_delayed_mag_0.IN GF_INV_MAG_1.OUT VDD.t160 VDD.t159 pfet_03v3 ad=0.352p pd=2.48u as=0.352p ps=2.48u w=0.8u l=1u
X66 or_2_mag_1.IN1 and2_mag_2.GF_INV_MAG_0.IN VDD.t135 VDD.t134 pfet_03v3 ad=0.352p pd=2.48u as=0.352p ps=2.48u w=0.8u l=0.28u
X67 or_2_mag_0.IN2 nand3_mag_0.OUT VDD.t3 VDD.t2 pfet_03v3 ad=0.352p pd=2.48u as=0.352p ps=2.48u w=0.8u l=0.28u
X68 nand3_mag_0.OUT Q1.t6 VDD.t247 VDD.t148 pfet_03v3 ad=0.208p pd=1.32u as=0.352p ps=2.48u w=0.8u l=0.28u
X69 VDD JK_FF_mag_2.nand2_mag_3.IN1 JK_FF_mag_2.nand2_mag_4.IN2 VDD.t41 pfet_03v3 ad=0.352p pd=2.48u as=0.208p ps=1.32u w=0.8u l=0.28u
X70 JK_FF_mag_1.K and2_mag_1.GF_INV_MAG_0.IN VDD.t80 VDD.t79 pfet_03v3 ad=0.352p pd=2.48u as=0.352p ps=2.48u w=0.8u l=0.28u
X71 VDD JK_FF_mag_2.nand3_mag_1.OUT JK_FF_mag_2.nand3_mag_1.IN1 VDD.t230 pfet_03v3 ad=0.352p pd=2.48u as=0.208p ps=1.32u w=0.8u l=0.28u
X72 JK_FF_mag_2.nand2_mag_4.IN2 JK_FF_mag_2.nand2_mag_3.IN1 a_10448_4915# VSS.t32 nfet_03v3 ad=0.194p pd=1.76u as=0.114p ps=0.96u w=0.44u l=0.28u
X73 or_2_mag_3.IN1 JK_FF_mag_2.nand2_mag_4.IN2 VDD.t262 VDD.t261 pfet_03v3 ad=0.208p pd=1.32u as=0.352p ps=2.48u w=0.8u l=0.28u
X74 JK_FF_mag_2.nand3_mag_1.IN1 JK_FF_mag_2.nand3_mag_1.OUT a_9730_3818# VSS.t156 nfet_03v3 ad=0.194p pd=1.76u as=0.114p ps=0.96u w=0.44u l=0.28u
X75 JK_FF_mag_2.nand2_mag_3.IN1 CLK.t7 VDD.t209 VDD.t208 pfet_03v3 ad=0.352p pd=2.48u as=0.352p ps=2.48u w=0.8u l=0.28u
X76 a_11012_4915# JK_FF_mag_2.nand2_mag_4.IN2 VSS.t167 VSS.t166 nfet_03v3 ad=0.114p pd=0.96u as=0.194p ps=1.76u w=0.44u l=0.28u
X77 Buffer_delayed_mag_1.Inverter_delayed_mag_0.IN GF_INV_MAG_1.OUT VSS.t114 VSS.t113 nfet_03v3 ad=0.152p pd=1.64u as=0.152p ps=1.64u w=0.22u l=1u
X78 a_13043_4919# RST.t2 a_12883_4919# VSS.t170 nfet_03v3 ad=0.172p pd=1.18u as=0.172p ps=1.18u w=0.66u l=0.28u
X79 VDD Q1.t7 or_2_mag_3.IN1.t1 VDD.t248 pfet_03v3 ad=0.352p pd=2.48u as=0.208p ps=1.32u w=0.8u l=0.28u
X80 nand3_mag_1.OUT CLK.t8 VDD.t207 VDD.t206 pfet_03v3 ad=0.352p pd=2.48u as=0.208p ps=1.32u w=0.8u l=0.28u
X81 and2_mag_3.OUT and2_mag_3.GF_INV_MAG_0.IN VSS.t106 VSS.t105 nfet_03v3 ad=0.152p pd=1.64u as=0.152p ps=1.64u w=0.22u l=0.28u
X82 or_2_mag_3.IN1 Q1.t8 a_11012_4915# VSS.t125 nfet_03v3 ad=0.194p pd=1.76u as=0.114p ps=0.96u w=0.44u l=0.28u
X83 JK_FF_mag_3.nand2_mag_4.IN2 JK_FF_mag_3.nand2_mag_3.IN1 a_13607_4919# VSS.t98 nfet_03v3 ad=0.194p pd=1.76u as=0.114p ps=0.96u w=0.44u l=0.28u
X84 nand3_mag_1.OUT CLK.t9 a_7639_1615# VSS.t140 nfet_03v3 ad=0.29p pd=2.2u as=0.172p ps=1.18u w=0.66u l=0.28u
X85 JK_FF_mag_3.nand3_mag_2.OUT Q0.t5 a_12319_4919# VSS.t110 nfet_03v3 ad=0.29p pd=2.2u as=0.172p ps=1.18u w=0.66u l=0.28u
X86 a_12883_4919# JK_FF_mag_3.nand3_mag_2.OUT VSS.t147 VSS.t146 nfet_03v3 ad=0.172p pd=1.18u as=0.29p ps=2.2u w=0.66u l=0.28u
X87 JK_FF_mag_3.nand3_mag_1.OUT JK_FF_mag_3.nand3_mag_1.IN1 a_13043_4919# VSS.t157 nfet_03v3 ad=0.29p pd=2.2u as=0.172p ps=1.18u w=0.66u l=0.28u
X88 VDD or_2_mag_3.IN1.t4 Q1.t2 VDD.t233 pfet_03v3 ad=0.352p pd=2.48u as=0.208p ps=1.32u w=0.8u l=0.28u
X89 Q1 or_2_mag_3.IN1.t5 a_10858_3818# VSS.t92 nfet_03v3 ad=0.194p pd=1.76u as=0.114p ps=0.96u w=0.44u l=0.28u
X90 JK_FF_mag_1.nand3_mag_1.IN1 JK_FF_mag_1.nand3_mag_0.OUT VDD.t10 VDD.t9 pfet_03v3 ad=0.208p pd=1.32u as=0.352p ps=2.48u w=0.8u l=0.28u
X91 a_6616_3820# JK_FF_mag_1.nand3_mag_0.OUT VSS.t7 VSS.t0 nfet_03v3 ad=0.114p pd=0.96u as=0.194p ps=1.76u w=0.44u l=0.28u
X92 VDD JK_FF_mag_2.nand2_mag_3.IN1 JK_FF_mag_2.nand2_mag_1.IN2 VDD.t38 pfet_03v3 ad=0.352p pd=2.48u as=0.208p ps=1.32u w=0.8u l=0.28u
X93 JK_FF_mag_2.nand2_mag_1.IN2 JK_FF_mag_2.nand2_mag_3.IN1 a_10294_3818# VSS.t31 nfet_03v3 ad=0.194p pd=1.76u as=0.114p ps=0.96u w=0.44u l=0.28u
X94 Q2 JK_FF_mag_1.nand2_mag_1.IN2 VDD.t1 VDD.t0 pfet_03v3 ad=0.208p pd=1.32u as=0.352p ps=2.48u w=0.8u l=0.28u
X95 VDD JK_FF_mag_1.nand2_mag_3.IN1 JK_FF_mag_1.nand2_mag_1.IN2 VDD.t170 pfet_03v3 ad=0.352p pd=2.48u as=0.208p ps=1.32u w=0.8u l=0.28u
X96 JK_FF_mag_1.nand2_mag_1.IN2 JK_FF_mag_1.nand2_mag_3.IN1 a_7180_3820# VSS.t0 nfet_03v3 ad=0.194p pd=1.76u as=0.114p ps=0.96u w=0.44u l=0.28u
X97 a_7744_3820# JK_FF_mag_1.nand2_mag_1.IN2 VSS.t1 VSS.t0 nfet_03v3 ad=0.114p pd=0.96u as=0.194p ps=1.76u w=0.44u l=0.28u
X98 or_2_mag_1.GF_INV_MAG_1.IN or_2_mag_1.IN1 a_1377_1477# VDD.t44 pfet_03v3 ad=0.704p pd=4.08u as=0.416p ps=2.12u w=1.6u l=0.28u
X99 Q1 JK_FF_mag_2.nand2_mag_1.IN2 VDD.t99 VDD.t98 pfet_03v3 ad=0.208p pd=1.32u as=0.352p ps=2.48u w=0.8u l=0.28u
X100 a_10858_3818# JK_FF_mag_2.nand2_mag_1.IN2 VSS.t70 VSS.t69 nfet_03v3 ad=0.114p pd=0.96u as=0.194p ps=1.76u w=0.44u l=0.28u
X101 JK_FF_mag_0.nand3_mag_1.OUT JK_FF_mag_0.nand3_mag_1.IN1 VDD.t62 VDD.t61 pfet_03v3 ad=0.352p pd=2.48u as=0.208p ps=1.32u w=0.8u l=0.28u
X102 JK_FF_mag_0.nand3_mag_1.OUT JK_FF_mag_0.nand3_mag_1.IN1 a_3635_4915# VSS.t48 nfet_03v3 ad=0.29p pd=2.2u as=0.172p ps=1.18u w=0.66u l=0.28u
X103 JK_FF_mag_2.nand2_mag_1.IN2 JK_FF_mag_2.nand3_mag_1.IN1 VDD.t124 VDD.t123 pfet_03v3 ad=0.208p pd=1.32u as=0.352p ps=2.48u w=0.8u l=0.28u
X104 JK_FF_mag_1.nand2_mag_1.IN2 JK_FF_mag_1.nand3_mag_1.IN1 VDD.t115 VDD.t114 pfet_03v3 ad=0.208p pd=1.32u as=0.352p ps=2.48u w=0.8u l=0.28u
X105 a_10294_3818# JK_FF_mag_2.nand3_mag_1.IN1 VSS.t86 VSS.t85 nfet_03v3 ad=0.114p pd=0.96u as=0.194p ps=1.76u w=0.44u l=0.28u
X106 JK_FF_mag_2.K or_2_mag_1.GF_INV_MAG_1.IN VSS.t9 VSS.t8 nfet_03v3 ad=0.152p pd=1.64u as=0.152p ps=1.64u w=0.22u l=0.28u
X107 a_140_2787# Q0.t6 a_n20_2787# VSS.t11 nfet_03v3 ad=0.172p pd=1.18u as=0.172p ps=1.18u w=0.66u l=0.28u
X108 a_7180_3820# JK_FF_mag_1.nand3_mag_1.IN1 VSS.t79 VSS.t0 nfet_03v3 ad=0.114p pd=0.96u as=0.194p ps=1.76u w=0.44u l=0.28u
X109 a_1377_1477# Q0.t7 VDD.t17 VDD.t16 pfet_03v3 ad=0.416p pd=2.12u as=0.704p ps=4.08u w=1.6u l=0.28u
X110 JK_FF_mag_3.nand2_mag_3.IN1 CLK.t10 VDD.t205 VDD.t204 pfet_03v3 ad=0.352p pd=2.48u as=0.352p ps=2.48u w=0.8u l=0.28u
X111 JK_FF_mag_2.nand3_mag_2.OUT JK_FF_mag_2.K VDD.t30 VDD.t29 pfet_03v3 ad=0.208p pd=1.32u as=0.352p ps=2.48u w=0.8u l=0.28u
X112 JK_FF_mag_3.nand3_mag_0.OUT JK_FF_mag_3.QB VDD.t64 VDD.t63 pfet_03v3 ad=0.352p pd=2.48u as=0.208p ps=1.32u w=0.8u l=0.28u
X113 a_9000_4915# JK_FF_mag_2.K VSS.t21 VSS.t20 nfet_03v3 ad=0.172p pd=1.18u as=0.29p ps=2.2u w=0.66u l=0.28u
X114 JK_FF_mag_2.nand3_mag_2.OUT Q1.t9 VDD.t178 VDD.t177 pfet_03v3 ad=0.352p pd=2.48u as=0.208p ps=1.32u w=0.8u l=0.28u
X115 JK_FF_mag_3.nand3_mag_0.OUT JK_FF_mag_3.QB a_12325_3822# VSS.t49 nfet_03v3 ad=0.29p pd=2.2u as=0.172p ps=1.18u w=0.66u l=0.28u
X116 JK_FF_mag_2.nand3_mag_1.OUT JK_FF_mag_2.nand3_mag_2.OUT VDD.t26 VDD.t25 pfet_03v3 ad=0.208p pd=1.32u as=0.352p ps=2.48u w=0.8u l=0.28u
X117 Vdiv11 nor_3_mag_0.OUT VDD.t176 VDD.t175 pfet_03v3 ad=0.352p pd=2.48u as=0.352p ps=2.48u w=0.8u l=0.28u
X118 JK_FF_mag_2.nand3_mag_2.OUT Q1.t10 a_9160_4915# VSS.t129 nfet_03v3 ad=0.29p pd=2.2u as=0.172p ps=1.18u w=0.66u l=0.28u
X119 a_9724_4915# JK_FF_mag_2.nand3_mag_2.OUT VSS.t17 VSS.t16 nfet_03v3 ad=0.172p pd=1.18u as=0.29p ps=2.2u w=0.66u l=0.28u
X120 VSS or_2_mag_1.IN1 or_2_mag_1.GF_INV_MAG_1.IN VSS.t22 nfet_03v3 ad=0.152p pd=1.64u as=86.8f ps=0.92u w=0.22u l=0.28u
X121 nand3_mag_0.OUT Q2.t10 a_140_2787# VSS.t11 nfet_03v3 ad=0.29p pd=2.2u as=0.172p ps=1.18u w=0.66u l=0.28u
X122 VDD CLK.t11 JK_FF_mag_2.nand3_mag_2.OUT VDD.t201 pfet_03v3 ad=0.208p pd=1.32u as=0.208p ps=1.32u w=0.8u l=0.28u
X123 JK_FF_mag_3.nand2_mag_3.IN1 CLK.t12 VSS.t139 VSS.t138 nfet_03v3 ad=0.152p pd=1.64u as=0.152p ps=1.64u w=0.22u l=0.28u
X124 a_9160_4915# CLK.t13 a_9000_4915# VSS.t137 nfet_03v3 ad=0.172p pd=1.18u as=0.172p ps=1.18u w=0.66u l=0.28u
X125 and2_mag_1.GF_INV_MAG_0.IN Q1.t11 a_1385_2540# VSS.t24 nfet_03v3 ad=0.194p pd=1.76u as=0.114p ps=0.96u w=0.44u l=0.28u
X126 a_939_3715# or_2_mag_0.IN2 VDD.t52 VDD.t51 pfet_03v3 ad=0.416p pd=2.12u as=0.704p ps=4.08u w=1.6u l=0.28u
X127 a_n20_2787# Q1.t12 VSS.t126 VSS.t11 nfet_03v3 ad=0.172p pd=1.18u as=0.29p ps=2.2u w=0.66u l=0.28u
X128 JK_FF_mag_2.nand3_mag_0.OUT JK_FF_mag_2.K VDD.t28 VDD.t27 pfet_03v3 ad=0.208p pd=1.32u as=0.352p ps=2.48u w=0.8u l=0.28u
X129 a_9006_3818# JK_FF_mag_2.K VSS.t19 VSS.t18 nfet_03v3 ad=0.172p pd=1.18u as=0.29p ps=2.2u w=0.66u l=0.28u
X130 JK_FF_mag_2.nand2_mag_4.IN2 JK_FF_mag_2.nand3_mag_1.OUT VDD.t229 VDD.t228 pfet_03v3 ad=0.208p pd=1.32u as=0.352p ps=2.48u w=0.8u l=0.28u
X131 JK_FF_mag_2.nand3_mag_1.IN1 JK_FF_mag_2.nand3_mag_0.OUT VDD.t73 VDD.t72 pfet_03v3 ad=0.208p pd=1.32u as=0.352p ps=2.48u w=0.8u l=0.28u
X132 JK_FF_mag_2.nand3_mag_0.OUT or_2_mag_3.IN1.t6 VDD.t244 VDD.t243 pfet_03v3 ad=0.352p pd=2.48u as=0.208p ps=1.32u w=0.8u l=0.28u
X133 a_10448_4915# JK_FF_mag_2.nand3_mag_1.OUT VSS.t155 VSS.t154 nfet_03v3 ad=0.114p pd=0.96u as=0.194p ps=1.76u w=0.44u l=0.28u
X134 JK_FF_mag_2.nand3_mag_0.OUT or_2_mag_3.IN1.t7 a_9166_3818# VSS.t68 nfet_03v3 ad=0.29p pd=2.2u as=0.172p ps=1.18u w=0.66u l=0.28u
X135 a_9730_3818# JK_FF_mag_2.nand3_mag_0.OUT VSS.t54 VSS.t53 nfet_03v3 ad=0.114p pd=0.96u as=0.194p ps=1.76u w=0.44u l=0.28u
X136 or_2_mag_1.GF_INV_MAG_1.IN Q0.t8 VSS.t23 VSS.t22 nfet_03v3 ad=86.8f pd=0.92u as=0.152p ps=1.64u w=0.22u l=0.28u
X137 a_1385_2540# Q0.t9 VSS.t25 VSS.t24 nfet_03v3 ad=0.114p pd=0.96u as=0.194p ps=1.76u w=0.44u l=0.28u
X138 VDD CLK.t14 JK_FF_mag_2.nand3_mag_0.OUT VDD.t198 pfet_03v3 ad=0.208p pd=1.32u as=0.208p ps=1.32u w=0.8u l=0.28u
X139 VDD RST.t3 JK_FF_mag_3.nand3_mag_1.OUT VDD.t254 pfet_03v3 ad=0.208p pd=1.32u as=0.208p ps=1.32u w=0.8u l=0.28u
X140 a_9166_3818# CLK.t15 a_9006_3818# VSS.t136 nfet_03v3 ad=0.172p pd=1.18u as=0.172p ps=1.18u w=0.66u l=0.28u
X141 VDD Q0.t10 nand3_mag_1.OUT VDD.t31 pfet_03v3 ad=0.208p pd=1.32u as=0.208p ps=1.32u w=0.8u l=0.28u
X142 a_13607_4919# JK_FF_mag_3.nand3_mag_1.OUT VSS.t82 VSS.t81 nfet_03v3 ad=0.114p pd=0.96u as=0.194p ps=1.76u w=0.44u l=0.28u
X143 VDD JK_FF_mag_3.nand2_mag_3.IN1 JK_FF_mag_3.nand2_mag_4.IN2 VDD.t143 pfet_03v3 ad=0.352p pd=2.48u as=0.208p ps=1.32u w=0.8u l=0.28u
X144 and2_mag_3.IN1 Buffer_delayed_mag_0.Inverter_delayed_mag_0.IN VDD.t35 VDD.t34 pfet_03v3 ad=0.352p pd=2.48u as=0.352p ps=2.48u w=0.8u l=1u
X145 a_7639_1615# Q0.t11 a_7479_1615# VSS.t26 nfet_03v3 ad=0.172p pd=1.18u as=0.172p ps=1.18u w=0.66u l=0.28u
X146 a_12319_4919# CLK.t16 a_12159_4919# VSS.t135 nfet_03v3 ad=0.172p pd=1.18u as=0.172p ps=1.18u w=0.66u l=0.28u
X147 JK_FF_mag_3.nand3_mag_2.OUT Q0.t12 VDD.t49 VDD.t48 pfet_03v3 ad=0.352p pd=2.48u as=0.208p ps=1.32u w=0.8u l=0.28u
X148 GF_INV_MAG_1.OUT nand3_mag_1.OUT VDD.t92 VDD.t91 pfet_03v3 ad=0.352p pd=2.48u as=0.352p ps=2.48u w=0.8u l=0.28u
X149 JK_FF_mag_3.QB Q0.t13 a_14171_4919# VSS.t39 nfet_03v3 ad=0.194p pd=1.76u as=0.114p ps=0.96u w=0.44u l=0.28u
X150 JK_FF_mag_3.nand3_mag_1.OUT JK_FF_mag_3.nand3_mag_2.OUT VDD.t219 VDD.t218 pfet_03v3 ad=0.208p pd=1.32u as=0.352p ps=2.48u w=0.8u l=0.28u
X151 JK_FF_mag_3.nand3_mag_1.OUT JK_FF_mag_3.nand3_mag_1.IN1 VDD.t237 VDD.t236 pfet_03v3 ad=0.352p pd=2.48u as=0.208p ps=1.32u w=0.8u l=0.28u
X152 JK_FF_mag_2.nand2_mag_3.IN1 CLK.t17 VSS.t134 VSS.t133 nfet_03v3 ad=0.152p pd=1.64u as=0.152p ps=1.64u w=0.22u l=0.28u
X153 VDD Q3.t3 and2_mag_2.GF_INV_MAG_0.IN VDD.t129 pfet_03v3 ad=0.352p pd=2.48u as=0.208p ps=1.32u w=0.8u l=0.28u
X154 nand3_mag_1.OUT and2_mag_3.IN1 VDD.t8 VDD.t7 pfet_03v3 ad=0.208p pd=1.32u as=0.352p ps=2.48u w=0.8u l=0.28u
X155 or_2_mag_1.IN1 and2_mag_2.GF_INV_MAG_0.IN VSS.t91 VSS.t90 nfet_03v3 ad=0.152p pd=1.64u as=0.152p ps=1.64u w=0.22u l=0.28u
X156 JK_FF_mag_1.nand3_mag_1.OUT JK_FF_mag_1.nand3_mag_1.IN1 VDD.t113 VDD.t112 pfet_03v3 ad=0.352p pd=2.48u as=0.208p ps=1.32u w=0.8u l=0.28u
X157 a_7479_1615# and2_mag_3.IN1 VSS.t6 VSS.t5 nfet_03v3 ad=0.172p pd=1.18u as=0.29p ps=2.2u w=0.66u l=0.28u
X158 a_12159_4919# JK_FF_mag_3.K.t3 VSS.t13 VSS.t12 nfet_03v3 ad=0.172p pd=1.18u as=0.29p ps=2.2u w=0.66u l=0.28u
X159 and2_mag_3.IN1 Buffer_delayed_mag_0.Inverter_delayed_mag_0.IN VSS.t28 VSS.t27 nfet_03v3 ad=0.152p pd=1.64u as=0.152p ps=1.64u w=0.22u l=1u
X160 JK_FF_mag_1.nand3_mag_1.OUT JK_FF_mag_1.nand3_mag_1.IN1 a_6770_4917# VSS.t78 nfet_03v3 ad=0.29p pd=2.2u as=0.172p ps=1.18u w=0.66u l=0.28u
X161 a_14171_4919# JK_FF_mag_3.nand2_mag_4.IN2 VSS.t112 VSS.t111 nfet_03v3 ad=0.114p pd=0.96u as=0.194p ps=1.76u w=0.44u l=0.28u
X162 nor_3_mag_0.IN3 Buffer_delayed_mag_1.Inverter_delayed_mag_0.IN VDD.t182 VDD.t181 pfet_03v3 ad=0.352p pd=2.48u as=0.352p ps=2.48u w=0.8u l=1u
X163 VDD JK_FF_mag_3.nand3_mag_1.OUT JK_FF_mag_3.nand3_mag_1.IN1 VDD.t118 pfet_03v3 ad=0.352p pd=2.48u as=0.208p ps=1.32u w=0.8u l=0.28u
X164 VDD CLK.t18 JK_FF_mag_0.nand3_mag_2.OUT VDD.t195 pfet_03v3 ad=0.208p pd=1.32u as=0.208p ps=1.32u w=0.8u l=0.28u
X165 GF_INV_MAG_1.OUT nand3_mag_1.OUT VSS.t64 VSS.t63 nfet_03v3 ad=0.152p pd=1.64u as=0.152p ps=1.64u w=0.22u l=0.28u
X166 and2_mag_2.GF_INV_MAG_0.IN Q1.t13 VDD.t180 VDD.t179 pfet_03v3 ad=0.208p pd=1.32u as=0.352p ps=2.48u w=0.8u l=0.28u
X167 JK_FF_mag_3.nand3_mag_1.IN1 JK_FF_mag_3.nand3_mag_1.OUT a_12889_3822# VSS.t80 nfet_03v3 ad=0.194p pd=1.76u as=0.114p ps=0.96u w=0.44u l=0.28u
X168 a_2911_4915# CLK.t19 a_2751_4915# VSS.t132 nfet_03v3 ad=0.172p pd=1.18u as=0.172p ps=1.18u w=0.66u l=0.28u
X169 VDD Q3.t4 or_2_mag_3.IN2 VDD.t74 pfet_03v3 ad=0.352p pd=2.48u as=0.208p ps=1.32u w=0.8u l=0.28u
X170 VDD RST.t4 JK_FF_mag_1.nand3_mag_1.OUT VDD.t251 pfet_03v3 ad=0.208p pd=1.32u as=0.208p ps=1.32u w=0.8u l=0.28u
X171 VDD and2_mag_3.IN1 and2_mag_3.GF_INV_MAG_0.IN VDD.t4 pfet_03v3 ad=0.352p pd=2.48u as=0.208p ps=1.32u w=0.8u l=0.28u
X172 or_2_mag_3.IN2 Q3.t5 a_4763_4915# VSS.t107 nfet_03v3 ad=0.194p pd=1.76u as=0.114p ps=0.96u w=0.44u l=0.28u
X173 VDD RST.t5 JK_FF_mag_0.nand3_mag_1.OUT VDD.t163 pfet_03v3 ad=0.208p pd=1.32u as=0.208p ps=1.32u w=0.8u l=0.28u
X174 and2_mag_3.GF_INV_MAG_0.IN and2_mag_3.IN1 a_8344_1618# VSS.t4 nfet_03v3 ad=0.194p pd=1.76u as=0.114p ps=0.96u w=0.44u l=0.28u
X175 and2_mag_2.GF_INV_MAG_0.IN Q3.t6 a_n27_2146# VSS.t36 nfet_03v3 ad=0.194p pd=1.76u as=0.114p ps=0.96u w=0.44u l=0.28u
X176 a_3635_4915# RST.t6 a_3475_4915# VSS.t35 nfet_03v3 ad=0.172p pd=1.18u as=0.172p ps=1.18u w=0.66u l=0.28u
X177 a_6770_4917# RST.t7 a_6610_4917# VSS.t76 nfet_03v3 ad=0.172p pd=1.18u as=0.172p ps=1.18u w=0.66u l=0.28u
X178 VDD JK_FF_mag_1.nand2_mag_3.IN1 JK_FF_mag_1.nand2_mag_4.IN2 VDD.t167 pfet_03v3 ad=0.352p pd=2.48u as=0.208p ps=1.32u w=0.8u l=0.28u
X179 VDD Q3.t7 and2_mag_0.GF_INV_MAG_0.IN VDD.t22 pfet_03v3 ad=0.352p pd=2.48u as=0.208p ps=1.32u w=0.8u l=0.28u
X180 nor_3_mag_0.IN3 Buffer_delayed_mag_1.Inverter_delayed_mag_0.IN VSS.t128 VSS.t127 nfet_03v3 ad=0.152p pd=1.64u as=0.152p ps=1.64u w=0.22u l=1u
X181 nor_3_mag_0.OUT nor_3_mag_0.IN3 VSS.t116 VSS.t115 nfet_03v3 ad=86.8f pd=0.92u as=0.152p ps=1.64u w=0.22u l=0.28u
X182 JK_FF_mag_3.nand3_mag_1.IN1 JK_FF_mag_3.nand3_mag_0.OUT VDD.t128 VDD.t127 pfet_03v3 ad=0.208p pd=1.32u as=0.352p ps=2.48u w=0.8u l=0.28u
X183 JK_FF_mag_1.nand2_mag_4.IN2 JK_FF_mag_1.nand2_mag_3.IN1 a_7334_4917# VSS.t120 nfet_03v3 ad=0.194p pd=1.76u as=0.114p ps=0.96u w=0.44u l=0.28u
X184 VDD JK_FF_mag_0.nand2_mag_3.IN1 JK_FF_mag_0.nand2_mag_4.IN2 VDD.t56 pfet_03v3 ad=0.352p pd=2.48u as=0.208p ps=1.32u w=0.8u l=0.28u
X185 a_12889_3822# JK_FF_mag_3.nand3_mag_0.OUT VSS.t89 VSS.t88 nfet_03v3 ad=0.114p pd=0.96u as=0.194p ps=1.76u w=0.44u l=0.28u
X186 JK_FF_mag_0.nand2_mag_4.IN2 JK_FF_mag_0.nand2_mag_3.IN1 a_4199_4915# VSS.t45 nfet_03v3 ad=0.194p pd=1.76u as=0.114p ps=0.96u w=0.44u l=0.28u
X187 JK_FF_mag_0.nand3_mag_2.OUT Q3.t8 VDD.t71 VDD.t70 pfet_03v3 ad=0.352p pd=2.48u as=0.208p ps=1.32u w=0.8u l=0.28u
X188 or_2_mag_3.IN2 JK_FF_mag_0.nand2_mag_4.IN2 VDD.t174 VDD.t173 pfet_03v3 ad=0.208p pd=1.32u as=0.352p ps=2.48u w=0.8u l=0.28u
X189 VDD JK_FF_mag_3.nand2_mag_3.IN1 JK_FF_mag_3.nand2_mag_1.IN2 VDD.t140 pfet_03v3 ad=0.352p pd=2.48u as=0.208p ps=1.32u w=0.8u l=0.28u
X190 a_4763_4915# JK_FF_mag_0.nand2_mag_4.IN2 VSS.t122 VSS.t121 nfet_03v3 ad=0.114p pd=0.96u as=0.194p ps=1.76u w=0.44u l=0.28u
X191 JK_FF_mag_0.nand3_mag_1.OUT JK_FF_mag_0.nand3_mag_2.OUT VDD.t137 VDD.t136 pfet_03v3 ad=0.208p pd=1.32u as=0.352p ps=2.48u w=0.8u l=0.28u
X192 VDD CLK.t20 JK_FF_mag_3.nand3_mag_0.OUT VDD.t192 pfet_03v3 ad=0.208p pd=1.32u as=0.208p ps=1.32u w=0.8u l=0.28u
X193 JK_FF_mag_3.nand2_mag_1.IN2 JK_FF_mag_3.nand2_mag_3.IN1 a_13453_3822# VSS.t97 nfet_03v3 ad=0.194p pd=1.76u as=0.114p ps=0.96u w=0.44u l=0.28u
X194 JK_FF_mag_0.nand3_mag_2.OUT Q3.t9 a_2911_4915# VSS.t77 nfet_03v3 ad=0.29p pd=2.2u as=0.172p ps=1.18u w=0.66u l=0.28u
X195 a_3475_4915# JK_FF_mag_0.nand3_mag_2.OUT VSS.t94 VSS.t93 nfet_03v3 ad=0.172p pd=1.18u as=0.29p ps=2.2u w=0.66u l=0.28u
X196 JK_FF_mag_3.K or_2_mag_3.GF_INV_MAG_1.IN VDD.t122 VDD.t121 pfet_03v3 ad=0.352p pd=2.48u as=0.352p ps=2.48u w=0.8u l=0.28u
X197 a_n27_2146# Q1.t14 VSS.t101 VSS.t36 nfet_03v3 ad=0.114p pd=0.96u as=0.194p ps=1.76u w=0.44u l=0.28u
X198 a_12325_3822# CLK.t21 a_12165_3822# VSS.t131 nfet_03v3 ad=0.172p pd=1.18u as=0.172p ps=1.18u w=0.66u l=0.28u
X199 and2_mag_0.GF_INV_MAG_0.IN Q3.t10 a_n20_4333# VSS.t61 nfet_03v3 ad=0.194p pd=1.76u as=0.114p ps=0.96u w=0.44u l=0.28u
X200 VDD CLK.t22 JK_FF_mag_0.nand3_mag_0.OUT VDD.t189 pfet_03v3 ad=0.208p pd=1.32u as=0.208p ps=1.32u w=0.8u l=0.28u
X201 a_2917_3818# CLK.t23 a_2757_3818# VSS.t130 nfet_03v3 ad=0.172p pd=1.18u as=0.172p ps=1.18u w=0.66u l=0.28u
X202 JK_FF_mag_3.nand3_mag_0.OUT JK_FF_mag_3.K.t4 VDD.t19 VDD.t18 pfet_03v3 ad=0.208p pd=1.32u as=0.352p ps=2.48u w=0.8u l=0.28u
X203 VDD JK_FF_mag_0.nand3_mag_1.OUT JK_FF_mag_0.nand3_mag_1.IN1 VDD.t81 pfet_03v3 ad=0.352p pd=2.48u as=0.208p ps=1.32u w=0.8u l=0.28u
X204 a_12165_3822# JK_FF_mag_3.K.t5 VSS.t109 VSS.t108 nfet_03v3 ad=0.172p pd=1.18u as=0.29p ps=2.2u w=0.66u l=0.28u
X205 VSS or_2_mag_0.IN1 or_2_mag_0.GF_INV_MAG_1.IN VSS.t40 nfet_03v3 ad=0.152p pd=1.64u as=86.8f ps=0.92u w=0.22u l=0.28u
X206 JK_FF_mag_0.nand3_mag_1.IN1 JK_FF_mag_0.nand3_mag_1.OUT a_3481_3818# VSS.t57 nfet_03v3 ad=0.194p pd=1.76u as=0.114p ps=0.96u w=0.44u l=0.28u
X207 JK_FF_mag_0.nand2_mag_3.IN1 CLK.t24 VDD.t188 VDD.t187 pfet_03v3 ad=0.352p pd=2.48u as=0.352p ps=2.48u w=0.8u l=0.28u
X208 JK_FF_mag_0.nand2_mag_1.IN2 JK_FF_mag_0.nand3_mag_1.IN1 VDD.t60 VDD.t59 pfet_03v3 ad=0.208p pd=1.32u as=0.352p ps=2.48u w=0.8u l=0.28u
X209 or_2_mag_3.GF_INV_MAG_1.IN or_2_mag_3.IN1.t8 a_2849_1480# VDD.t183 pfet_03v3 ad=0.704p pd=4.08u as=0.416p ps=2.12u w=1.6u l=0.28u
X210 or_2_mag_0.IN2 nand3_mag_0.OUT VSS.t3 VSS.t2 nfet_03v3 ad=0.152p pd=1.64u as=0.152p ps=1.64u w=0.22u l=0.28u
X211 a_4045_3818# JK_FF_mag_0.nand3_mag_1.IN1 VSS.t47 VSS.t46 nfet_03v3 ad=0.114p pd=0.96u as=0.194p ps=1.76u w=0.44u l=0.28u
X212 nor_3_mag_0.OUT Q3.t11 a_11241_1205# VDD.t158 pfet_03v3 ad=1.06p pd=5.68u as=0.624p ps=2.92u w=2.4u l=0.28u
X213 JK_FF_mag_0.nand3_mag_0.OUT JK_FF_mag_0.K VDD.t225 VDD.t224 pfet_03v3 ad=0.208p pd=1.32u as=0.352p ps=2.48u w=0.8u l=0.28u
X214 nor_3_mag_0.OUT Q3.t12 VSS.t38 VSS.t37 nfet_03v3 ad=0.152p pd=1.64u as=86.8f ps=0.92u w=0.22u l=0.28u
X215 and2_mag_0.GF_INV_MAG_0.IN Q1.t15 VDD.t149 VDD.t148 pfet_03v3 ad=0.208p pd=1.32u as=0.352p ps=2.48u w=0.8u l=0.28u
X216 a_2757_3818# JK_FF_mag_0.K VSS.t151 VSS.t150 nfet_03v3 ad=0.172p pd=1.18u as=0.29p ps=2.2u w=0.66u l=0.28u
X217 JK_FF_mag_0.nand3_mag_0.OUT or_2_mag_3.IN2 VDD.t106 VDD.t105 pfet_03v3 ad=0.352p pd=2.48u as=0.208p ps=1.32u w=0.8u l=0.28u
X218 VDD or_2_mag_3.IN2 Q3.t1 VDD.t102 pfet_03v3 ad=0.352p pd=2.48u as=0.208p ps=1.32u w=0.8u l=0.28u
X219 Q3 or_2_mag_3.IN2 a_4609_3818# VSS.t73 nfet_03v3 ad=0.194p pd=1.76u as=0.114p ps=0.96u w=0.44u l=0.28u
X220 JK_FF_mag_0.nand3_mag_1.IN1 JK_FF_mag_0.nand3_mag_0.OUT VDD.t69 VDD.t68 pfet_03v3 ad=0.208p pd=1.32u as=0.352p ps=2.48u w=0.8u l=0.28u
X221 Vdiv11 nor_3_mag_0.OUT VSS.t124 VSS.t123 nfet_03v3 ad=0.152p pd=1.64u as=0.152p ps=1.64u w=0.22u l=0.28u
X222 JK_FF_mag_0.nand3_mag_0.OUT or_2_mag_3.IN2 a_2917_3818# VSS.t72 nfet_03v3 ad=0.29p pd=2.2u as=0.172p ps=1.18u w=0.66u l=0.28u
X223 a_3481_3818# JK_FF_mag_0.nand3_mag_0.OUT VSS.t52 VSS.t51 nfet_03v3 ad=0.114p pd=0.96u as=0.194p ps=1.76u w=0.44u l=0.28u
X224 VDD JK_FF_mag_0.nand2_mag_3.IN1 JK_FF_mag_0.nand2_mag_1.IN2 VDD.t53 pfet_03v3 ad=0.352p pd=2.48u as=0.208p ps=1.32u w=0.8u l=0.28u
X225 JK_FF_mag_0.nand2_mag_1.IN2 JK_FF_mag_0.nand2_mag_3.IN1 a_4045_3818# VSS.t44 nfet_03v3 ad=0.194p pd=1.76u as=0.114p ps=0.96u w=0.44u l=0.28u
X226 JK_FF_mag_3.K or_2_mag_3.GF_INV_MAG_1.IN VSS.t84 VSS.t83 nfet_03v3 ad=0.152p pd=1.64u as=0.152p ps=1.64u w=0.22u l=0.28u
X227 JK_FF_mag_1.K and2_mag_1.GF_INV_MAG_0.IN VSS.t56 VSS.t55 nfet_03v3 ad=0.152p pd=1.64u as=0.152p ps=1.64u w=0.22u l=0.28u
X228 a_n20_4333# Q1.t16 VSS.t62 VSS.t61 nfet_03v3 ad=0.114p pd=0.96u as=0.194p ps=1.76u w=0.44u l=0.28u
X229 VSS and2_mag_3.OUT nor_3_mag_0.OUT VSS.t117 nfet_03v3 ad=86.8f pd=0.92u as=86.8f ps=0.92u w=0.22u l=0.28u
X230 JK_FF_mag_3.nand2_mag_4.IN2 JK_FF_mag_3.nand3_mag_1.OUT VDD.t117 VDD.t116 pfet_03v3 ad=0.208p pd=1.32u as=0.352p ps=2.48u w=0.8u l=0.28u
X231 or_2_mag_0.GF_INV_MAG_1.IN or_2_mag_0.IN2 VSS.t43 VSS.t40 nfet_03v3 ad=86.8f pd=0.92u as=0.152p ps=1.64u w=0.22u l=0.28u
X232 VDD CLK.t25 JK_FF_mag_3.nand3_mag_2.OUT VDD.t184 pfet_03v3 ad=0.208p pd=1.32u as=0.208p ps=1.32u w=0.8u l=0.28u
X233 VDD Q0.t14 JK_FF_mag_3.QB VDD.t45 pfet_03v3 ad=0.352p pd=2.48u as=0.208p ps=1.32u w=0.8u l=0.28u
R0 CLK.n12 CLK.t3 36.935
R1 CLK.n6 CLK.t1 36.935
R2 CLK.n48 CLK.t15 36.935
R3 CLK.n42 CLK.t13 36.935
R4 CLK.n57 CLK.t9 36.935
R5 CLK.n30 CLK.t21 36.935
R6 CLK.n24 CLK.t16 36.935
R7 CLK.n72 CLK.t23 36.935
R8 CLK.n66 CLK.t19 36.935
R9 CLK.n77 CLK.t24 25.4742
R10 CLK.n38 CLK.t7 25.4742
R11 CLK.n2 CLK.t4 25.4739
R12 CLK.n20 CLK.t10 25.4739
R13 CLK.n12 CLK.t2 18.1962
R14 CLK.n6 CLK.t0 18.1962
R15 CLK.n48 CLK.t14 18.1962
R16 CLK.n42 CLK.t11 18.1962
R17 CLK.n57 CLK.t8 18.1962
R18 CLK.n30 CLK.t20 18.1962
R19 CLK.n24 CLK.t25 18.1962
R20 CLK.n72 CLK.t22 18.1962
R21 CLK.n66 CLK.t18 18.1962
R22 CLK.n77 CLK.t5 14.142
R23 CLK.n38 CLK.t17 14.142
R24 CLK.n2 CLK.t6 14.1414
R25 CLK.n20 CLK.t12 14.1414
R26 CLK.n62 CLK 5.77975
R27 CLK.n79 CLK.n63 5.11742
R28 CLK.n7 CLK.n4 4.5005
R29 CLK.n9 CLK.n8 4.5005
R30 CLK.n11 CLK.n10 4.5005
R31 CLK.n13 CLK.n10 4.5005
R32 CLK.n17 CLK.n3 4.5005