** sch_path: /home/shahid/GF180Projects/Top_test/top/xschem/pll_5.sch
**.subckt pll_5
V1 P1 VSS 0
.save i(v1)
V2 P0 VSS 0
.save i(v2)
x3 VSS Vref Vdiv PU PD VDD PFD
VCNTL Vref VSS pulse(3.3 0 0 100p 100p 250n 500n)
.save i(vcntl)
V3 VDD_VCO VSS PWL( 0 0 100n 0 100.001n 3.3)
.save i(v3)
V4 VDD VSS 3.3
.save i(v4)
V5 VSS GND 0
.save i(v5)
V6 RST_DIV VSS PWL( 0 0 10n 0 10.001n 3)
.save i(v6)
x2 VSS VDD RST_DIV Vdiv F2 F1 F0 VCO_op Feedback_Divider
V7 F1 VSS 3.3
.save i(v7)
V8 F0 VSS 3.3
.save i(v8)
V9 F2 VSS 3.3
.save i(v9)
x5 VSS VDD RST_DIV Output2 OPB1 OPB0 VCO_op Output_Divider
V10 OPA0 VSS 3.3
.save i(v10)
V11 OPA1 VSS 3.3
.save i(v11)
V12 OPB0 VSS 3.3
.save i(v12)
V13 OPB1 VSS 0
.save i(v13)
x6 IPD+ IPD_ PU PD vcntl VSS VDD CP
x7 vcntl VDD VSS LF
I0 IPD_ VSS 20u
I1 VDD IPD+ 20u
x4 VSS VDD RST_DIV Output1 OPA1 OPA0 VCO_op Output_Divider
x8 VDD_VCO VCO_op VCO_op_bar vcntl VCO_smb_old
x1 VSS VDD RST_DIV Vref P1 P0 Vref Prescalar_Divider
**** begin user architecture code


.control
save all
tran 10n 50u
plot v(VCO_op) v(VCO_op_bar)+4
**write pll_4.raw
.endc



.include /home/shahid/OSPDKs/gf180mcuC/libs.tech/ngspice/design.ngspice
.lib /home/shahid/OSPDKs/gf180mcuC/libs.tech/ngspice/sm141064.ngspice cap_mim
.lib /home/shahid/OSPDKs/gf180mcuC/libs.tech/ngspice/sm141064.ngspice moscap_typical
.lib /home/shahid/OSPDKs/gf180mcuC/libs.tech/ngspice/sm141064.ngspice mimcap_typical
.lib /home/shahid/OSPDKs/gf180mcuC/libs.tech/ngspice/sm141064.ngspice typical
.lib /home/shahid/OSPDKs/gf180mcuC/libs.tech/ngspice/sm141064.ngspice res_typical
* .lib /home/shahid/OSPDKs/gf180mcuC/libs.tech/ngspice/sm141064.ngspice res_statistical

**** end user architecture code
**.ends

* expanding   symbol:  PFD.sym # of pins=6
** sym_path: /home/shahid/GF180Projects/Top_test/top/xschem/PFD.sym
** sch_path: /home/shahid/GF180Projects/Top_test/top/xschem/PFD.sch
.subckt PFD VSS VREF VDIV PU PD VDD
*.iopin VDD
*.iopin VSS
*.ipin VREF
*.ipin VDIV
*.opin PU
*.opin PD
x1 VSS VDD net6 net2 net7 net1 VDD DFF
x2 VSS VDD net6 net5 net4 net3 VDD DFF
x3 net4 VSS VDD net8 net7 NAND
x5 VSS net8 net6 VDD buffer
x6 VSS VREF net5 VDD inv_my
x7 VSS VDIV net2 VDD inv_my
x4 VSS VDD PU net4 buffer_loading
x8 VSS VDD PD net7 buffer_loading
.ends


* expanding   symbol:  Feedback_Divider.sym # of pins=8
** sym_path: /home/shahid/GF180Projects/Top_test/top/xschem/Feedback_Divider.sym
** sch_path: /home/shahid/GF180Projects/Top_test/top/xschem/Feedback_Divider.sch
.subckt Feedback_Divider VSS VDD RST Vdiv F2 F1 F0 CLK
*.ipin CLK
*.iopin VSS
*.iopin VDD
*.ipin RST
*.opin Vdiv
*.ipin F2
*.ipin F1
*.ipin F0
x2 VDD VSS F1 F2 Vdiv F0 net10 net16 net1 net13 net14 net12 net2 net15 8x1_mux
x1 VSS net6 RST net2 CLK CLK_div_100
x3 VSS net7 RST net14 CLK CLK_div_105
x4 VSS net8 RST net15 CLK CLK_div_108
x5 VSS net9 RST net16 CLK CLK_div_110
x6 VSS net3 RST net10 CLK CLK_div_90
x7 VSS net11 RST net13 CLK CLK_div_96
x8 VSS net4 net12 RST CLK CLK_div_93
x9 VSS net5 net1 RST CLK CLK_div_99
x10 F2 VSS VDD net3 net4 net11 net5 net6 net7 net8 net9 F0 F1 dec_3x8_updated
.ends


* expanding   symbol:  Output_Divider.sym # of pins=7
** sym_path: /home/shahid/GF180Projects/Top_test/top/xschem/Output_Divider.sym
** sch_path: /home/shahid/GF180Projects/Top_test/top/xschem/Output_Divider.sch
.subckt Output_Divider VSS VDD RST Vdiv OPA1 OPA0 CLK
*.ipin CLK
*.iopin VSS
*.iopin VDD
*.ipin RST
*.opin Vdiv
*.ipin OPA1
*.ipin OPA0
x4 VDD OPA1 VSS net7 net8 OPA0 net5 net6 Vdiv 4x1_mux
x5 OPA0 VSS VDD net4 net1 net2 net3 OPA1 decoder_2x4
x6 VSS CLK net5 net4 buffer
x1 VSS net1 net6 RST CLK CLK_div_2
x2 VSS net2 net9 net10 RST net7 CLK CLK_div_3
x3 VSS net3 net11 net8 RST CLK CLK_div_4
.ends


* expanding   symbol:  CP.sym # of pins=7
** sym_path: /home/shahid/GF180Projects/Top_test/top/xschem/CP.sym
** sch_path: /home/shahid/GF180Projects/Top_test/top/xschem/CP.sch
.subckt CP IPD+ IPD_ PU PD VCNTL VSS VDD
*.iopin VDD
*.iopin VSS
*.ipin PU
*.opin VCNTL
*.ipin PD
*.ipin IPD+
*.ipin IPD_
XM4 VCNTL PD net1 VSS nfet_03v3 L=0.56u W=0.56u nf=1 ad='int((nf+1)/2) * W/nf * 0.18u' as='int((nf+2)/2) * W/nf * 0.18u'
+ pd='2*int((nf+1)/2) * (W/nf + 0.18u)' ps='2*int((nf+2)/2) * (W/nf + 0.18u)' nrd='0.18u / W' nrs='0.18u / W'
+ sa=0 sb=0 sd=0 m=1
x1 VSS PU net3 VDD inv_my
XM5 net1 IPD+ VSS VSS nfet_03v3 L=0.56u W=0.56u nf=1 ad='int((nf+1)/2) * W/nf * 0.18u' as='int((nf+2)/2) * W/nf * 0.18u'
+ pd='2*int((nf+1)/2) * (W/nf + 0.18u)' ps='2*int((nf+2)/2) * (W/nf + 0.18u)' nrd='0.18u / W' nrs='0.18u / W'
+ sa=0 sb=0 sd=0 m=1
XM6 IPD+ IPD+ VSS VSS nfet_03v3 L=0.56u W=0.56u nf=1 ad='int((nf+1)/2) * W/nf * 0.18u' as='int((nf+2)/2) * W/nf * 0.18u'
+ pd='2*int((nf+1)/2) * (W/nf + 0.18u)' ps='2*int((nf+2)/2) * (W/nf + 0.18u)' nrd='0.18u / W' nrs='0.18u / W'
+ sa=0 sb=0 sd=0 m=1
XM1 VCNTL net3 net2 VDD pfet_03v3 L=0.56u W=1u nf=1 ad='int((nf+1)/2) * W/nf * 0.18u' as='int((nf+2)/2) * W/nf * 0.18u'
+ pd='2*int((nf+1)/2) * (W/nf + 0.18u)' ps='2*int((nf+2)/2) * (W/nf + 0.18u)' nrd='0.18u / W' nrs='0.18u / W'
+ sa=0 sb=0 sd=0 m=1
XM2 net2 IPD_ VDD VDD pfet_03v3 L=0.56u W=1u nf=1 ad='int((nf+1)/2) * W/nf * 0.18u' as='int((nf+2)/2) * W/nf * 0.18u'
+ pd='2*int((nf+1)/2) * (W/nf + 0.18u)' ps='2*int((nf+2)/2) * (W/nf + 0.18u)' nrd='0.18u / W' nrs='0.18u / W'
+ sa=0 sb=0 sd=0 m=1
XM3 IPD_ IPD_ VDD VDD pfet_03v3 L=0.56u W=1u nf=1 ad='int((nf+1)/2) * W/nf * 0.18u' as='int((nf+2)/2) * W/nf * 0.18u'
+ pd='2*int((nf+1)/2) * (W/nf + 0.18u)' ps='2*int((nf+2)/2) * (W/nf + 0.18u)' nrd='0.18u / W' nrs='0.18u / W'
+ sa=0 sb=0 sd=0 m=1
.ends


* expanding   symbol:  LF.sym # of pins=3
** sym_path: /home/shahid/GF180Projects/Top_test/top/xschem/LF.sym
** sch_path: /home/shahid/GF180Projects/Top_test/top/xschem/LF.sch
.subckt LF VCNTL VDD VSS
*.iopin VSS
*.iopin VCNTL
*.iopin VDD
x1 net1 VCNTL VDD res_sch
x2 VSS net1 cap80p
x3 VCNTL VSS cap3p
.ends


* expanding   symbol:  VCO_smb_old.sym # of pins=4
** sym_path: /home/shahid/GF180Projects/Top_test/top/xschem/VCO_smb_old.sym
** sch_path: /home/shahid/GF180Projects/Top_test/top/xschem/VCO_smb_old.sch
.subckt VCO_smb_old VDD OUT OUTB VCNTL
*.opin OUT
*.opin OUTB
*.ipin VDD
*.ipin VCNTL
x3 GND VDD net8 net12 GF_INV
x4 GND VDD net7 net9 GF_INV
x5 GND VDD net3 net1 GF_INV_1
x6 GND VDD net4 net2 GF_INV_1
x7 GND VDD net5 net3 GF_INV_4
x8 GND VDD net6 net4 GF_INV_4
x9 GND VDD OUT net5 GF_INV_16
x10 GND VDD OUTB net6 GF_INV_16
x1 VDD GND VCNTL net2 net1 net13 net14 VDD VCO_old
x2 VDD GND VCNTL net14 net13 net12 net9 VDD VCO_old
x11 VDD GND VCNTL net7 net8 net10 net11 VDD VCO_old
x12 VDD GND VCNTL net11 net10 net1 net2 VDD VCO_old
.ends


* expanding   symbol:  Prescalar_Divider.sym # of pins=7
** sym_path: /home/shahid/GF180Projects/Top_test/top/xschem/Prescalar_Divider.sym
** sch_path: /home/shahid/GF180Projects/Top_test/top/xschem/Prescalar_Divider.sch
.subckt Prescalar_Divider VSS VDD RST Vdiv P1 P0 CLK
*.ipin CLK
*.iopin VSS
*.iopin VDD
*.ipin RST
*.opin Vdiv
*.ipin P1
*.ipin P0
x1 VSS net1 net10 net11 RST net6 CLK CLK_div_3
x2 VSS net2 net12 net7 RST CLK CLK_div_4
x3 VSS net3 net13 net14 RST net8 net15 CLK CLK_div_5
x4 VDD P1 VSS net7 net8 P0 net5 net6 net9 4x1_mux
x5 P0 VSS VDD net4 net1 net2 net3 P1 decoder_2x4
x6 VSS CLK net5 net4 buffer
x7 VSS net9 Vdiv VDD Load_BUFF
.ends


* expanding   symbol:  DFF.sym # of pins=7
** sym_path: /home/shahid/GF180Projects/Top_test/top/xschem/DFF.sym
** sch_path: /home/shahid/GF180Projects/Top_test/top/xschem/DFF.sch
.subckt DFF VSS D RST CLK Q QB VDD
*.iopin VDD
*.iopin VSS
*.ipin D
*.ipin RST
*.ipin CLK
*.opin Q
*.opin QB
x1 net1 VSS VDD net2 D NAND
x2 net3 VSS VDD net4 net7 NAND
x3 RST VSS VDD net3 CLK NAND
x4 net2 VSS VDD net5 net4 NAND
x5 net6 VSS VDD net1 net3 NAND
x6 RST VSS VDD net6 net5 NAND
x7 net1 VSS VDD QB Q NAND
x8 QB VSS VDD Q net4 NAND
x9 VSS net6 net7 VDD inv_my
.ends


* expanding   symbol:  NAND.sym # of pins=5
** sym_path: /home/shahid/GF180Projects/Top_test/top/xschem/NAND.sym
** sch_path: /home/shahid/GF180Projects/Top_test/top/xschem/NAND.sch
.subckt NAND IN1 VSS VDD OUT IN2
*.ipin IN2
*.ipin IN1
*.iopin VSS
*.iopin VDD
*.opin OUT
XM3 net1 IN2 VSS VSS nfet_03v3 L=0.28u W=0.22u nf=1 ad='int((nf+1)/2) * W/nf * 0.18u' as='int((nf+2)/2) * W/nf * 0.18u'
+ pd='2*int((nf+1)/2) * (W/nf + 0.18u)' ps='2*int((nf+2)/2) * (W/nf + 0.18u)' nrd='0.18u / W' nrs='0.18u / W'
+ sa=0 sb=0 sd=0 m=2
XM4 OUT IN1 net1 VSS nfet_03v3 L=0.28u W=0.22u nf=1 ad='int((nf+1)/2) * W/nf * 0.18u' as='int((nf+2)/2) * W/nf * 0.18u'
+ pd='2*int((nf+1)/2) * (W/nf + 0.18u)' ps='2*int((nf+2)/2) * (W/nf + 0.18u)' nrd='0.18u / W' nrs='0.18u / W'
+ sa=0 sb=0 sd=0 m=2
XM5 OUT IN1 VDD VDD pfet_03v3 L=0.28u W=0.8u nf=1 ad='int((nf+1)/2) * W/nf * 0.18u' as='int((nf+2)/2) * W/nf * 0.18u'
+ pd='2*int((nf+1)/2) * (W/nf + 0.18u)' ps='2*int((nf+2)/2) * (W/nf + 0.18u)' nrd='0.18u / W' nrs='0.18u / W'
+ sa=0 sb=0 sd=0 m=1
XM2 OUT IN2 VDD VDD pfet_03v3 L=0.28u W=0.8u nf=1 ad='int((nf+1)/2) * W/nf * 0.18u' as='int((nf+2)/2) * W/nf * 0.18u'
+ pd='2*int((nf+1)/2) * (W/nf + 0.18u)' ps='2*int((nf+2)/2) * (W/nf + 0.18u)' nrd='0.18u / W' nrs='0.18u / W'
+ sa=0 sb=0 sd=0 m=1
.ends


* expanding   symbol:  buffer.sym # of pins=4
** sym_path: /home/shahid/GF180Projects/Top_test/top/xschem/buffer.sym
** sch_path: /home/shahid/GF180Projects/Top_test/top/xschem/buffer.sch
.subckt buffer VSS IN OUT VDD
*.iopin VDD
*.iopin VSS
*.ipin IN
*.opin OUT
x1 VSS VDD OUT net1 GF_INV
x2 VSS VDD net1 IN GF_INV
.ends


* expanding   symbol:  inv_my.sym # of pins=4
** sym_path: /home/shahid/GF180Projects/Top_test/top/xschem/inv_my.sym
** sch_path: /home/shahid/GF180Projects/Top_test/top/xschem/inv_my.sch
.subckt inv_my VSS IN OUT VDD
*.iopin VDD
*.iopin VSS
*.ipin IN
*.opin OUT
XM1 OUT IN VSS VSS nfet_03v3 L=0.28u W=0.22u nf=1 ad='int((nf+1)/2) * W/nf * 0.18u' as='int((nf+2)/2) * W/nf * 0.18u'
+ pd='2*int((nf+1)/2) * (W/nf + 0.18u)' ps='2*int((nf+2)/2) * (W/nf + 0.18u)' nrd='0.18u / W' nrs='0.18u / W'
+ sa=0 sb=0 sd=0 m=1
XM2 OUT IN VDD VDD pfet_03v3 L=0.28u W=0.8u nf=1 ad='int((nf+1)/2) * W/nf * 0.18u' as='int((nf+2)/2) * W/nf * 0.18u'
+ pd='2*int((nf+1)/2) * (W/nf + 0.18u)' ps='2*int((nf+2)/2) * (W/nf + 0.18u)' nrd='0.18u / W' nrs='0.18u / W'
+ sa=0 sb=0 sd=0 m=1
.ends


* expanding   symbol:  buffer_loading.sym # of pins=4
** sym_path: /home/shahid/GF180Projects/Top_test/top/xschem/buffer_loading.sym
** sch_path: /home/shahid/GF180Projects/Top_test/top/xschem/buffer_loading.sch
.subckt buffer_loading VSS VDD OUT IN
*.iopin VDD
*.iopin VSS
*.ipin IN
*.opin OUT
XM1 net1 IN VSS VSS nfet_03v3 L=0.28u W=2u nf=1 ad='int((nf+1)/2) * W/nf * 0.18u' as='int((nf+2)/2) * W/nf * 0.18u'
+ pd='2*int((nf+1)/2) * (W/nf + 0.18u)' ps='2*int((nf+2)/2) * (W/nf + 0.18u)' nrd='0.18u / W' nrs='0.18u / W'
+ sa=0 sb=0 sd=0 m=1
XM2 net1 IN VDD VDD pfet_03v3 L=0.28u W=4u nf=1 ad='int((nf+1)/2) * W/nf * 0.18u' as='int((nf+2)/2) * W/nf * 0.18u'
+ pd='2*int((nf+1)/2) * (W/nf + 0.18u)' ps='2*int((nf+2)/2) * (W/nf + 0.18u)' nrd='0.18u / W' nrs='0.18u / W'
+ sa=0 sb=0 sd=0 m=1
XM3 OUT net1 VSS VSS nfet_03v3 L=0.28u W=2u nf=1 ad='int((nf+1)/2) * W/nf * 0.18u' as='int((nf+2)/2) * W/nf * 0.18u'
+ pd='2*int((nf+1)/2) * (W/nf + 0.18u)' ps='2*int((nf+2)/2) * (W/nf + 0.18u)' nrd='0.18u / W' nrs='0.18u / W'
+ sa=0 sb=0 sd=0 m=1
XM4 OUT net1 VDD VDD pfet_03v3 L=0.28u W=4u nf=1 ad='int((nf+1)/2) * W/nf * 0.18u' as='int((nf+2)/2) * W/nf * 0.18u'
+ pd='2*int((nf+1)/2) * (W/nf + 0.18u)' ps='2*int((nf+2)/2) * (W/nf + 0.18u)' nrd='0.18u / W' nrs='0.18u / W'
+ sa=0 sb=0 sd=0 m=1
.ends


* expanding   symbol:  8x1_mux.sym # of pins=14
** sym_path: /home/shahid/GF180Projects/Top_test/top/xschem/8x1_mux.sym
** sch_path: /home/shahid/GF180Projects/Top_test/top/xschem/8x1_mux.sch
.subckt 8x1_mux VDD VSS S1 S0 OUT S2 I0 I7 I3 I2 I5 I1 I4 I6
*.iopin VDD
*.iopin VSS
*.ipin S1
*.opin OUT
*.ipin S0
*.ipin I6
*.ipin I7
*.ipin I4
*.ipin I5
*.ipin I2
*.ipin I3
*.ipin I0
*.ipin I1
*.ipin S2
x1 VDD S1 VSS I6 I7 S0 I4 I5 net1 4x1_mux
x2 VDD S1 VSS I2 I3 S0 I0 I1 net2 4x1_mux
x3 VSS S2 OUT net2 net1 VDD 2x1_mux
.ends


* expanding   symbol:  CLK_div_100.sym # of pins=5
** sym_path: /home/shahid/GF180Projects/Top_test/top/xschem/CLK_div_100.sym
** sch_path: /home/shahid/GF180Projects/Top_test/top/xschem/CLK_div_100.sch
.subckt CLK_div_100 VSS VDD RST Vdiv100 CLK
*.ipin CLK
*.iopin VSS
*.iopin VDD
*.ipin RST
*.opin Vdiv100
x1 VSS VDD net3 net4 RST net1 net5 net6 CLK CLK_div_10
x2 VSS VDD net7 net8 RST net2 net9 net10 net1 CLK_div_10
x5 VSS net2 Vdiv100 VDD Load_BUFF
.ends


* expanding   symbol:  CLK_div_105.sym # of pins=5
** sym_path: /home/shahid/GF180Projects/Top_test/top/xschem/CLK_div_105.sym
** sch_path: /home/shahid/GF180Projects/Top_test/top/xschem/CLK_div_105.sch
.subckt CLK_div_105 VSS VDD RST Vdiv105 CLK
*.ipin CLK
*.iopin VSS
*.iopin VDD
*.ipin RST
*.opin Vdiv105
x1 VSS VDD net3 net4 RST net1 net5 CLK CLK_div_7
x2 VSS VDD net6 net7 RST net2 net1 CLK_div_3
x3 VSS VDD net8 net9 RST Vdiv105 net10 net2 CLK_div_5
.ends


* expanding   symbol:  CLK_div_108.sym # of pins=5
** sym_path: /home/shahid/GF180Projects/Top_test/top/xschem/CLK_div_108.sym
** sch_path: /home/shahid/GF180Projects/Top_test/top/xschem/CLK_div_108.sch
.subckt CLK_div_108 VSS VDD RST Vdiv108 CLK
*.ipin CLK
*.iopin VSS
*.iopin VDD
*.ipin RST
*.opin Vdiv108
x2 VSS VDD net5 net6 RST net1 CLK CLK_div_3
x1 VSS VDD net7 net8 RST net2 net1 CLK_div_3
x3 VSS VDD net9 net10 RST net3 net2 CLK_div_3
x4 net3 VSS VDD net4 VDD net11 RST VDD JK_flipflop
x5 net4 VSS VDD Vdiv108 VDD net12 RST VDD JK_flipflop
.ends


* expanding   symbol:  CLK_div_110.sym # of pins=5
** sym_path: /home/shahid/GF180Projects/Top_test/top/xschem/CLK_div_110.sym
** sch_path: /home/shahid/GF180Projects/Top_test/top/xschem/CLK_div_110.sch
.subckt CLK_div_110 VSS VDD RST Vdiv110 CLK
*.ipin CLK
*.iopin VSS
*.iopin VDD
*.ipin RST
*.opin Vdiv110
x2 VSS VDD net2 net3 RST Vdiv110 net4 net5 net1 CLK_div_10
x1 VSS VDD net6 net7 RST net1 net8 net9 CLK CLK_div_11_new
.ends


* expanding   symbol:  CLK_div_90.sym # of pins=5
** sym_path: /home/shahid/GF180Projects/Top_test/top/xschem/CLK_div_90.sym
** sch_path: /home/shahid/GF180Projects/Top_test/top/xschem/CLK_div_90.sch
.subckt CLK_div_90 VSS VDD RST Vdiv90 CLK
*.ipin CLK
*.iopin VSS
*.iopin VDD
*.ipin RST
*.opin Vdiv90
x1 VSS VDD net3 net4 RST net2 CLK CLK_div_3
x2 VSS VDD net5 net6 RST net1 net2 CLK_div_3
x3 VSS VDD net7 net8 RST Vdiv90 net9 net10 net1 CLK_div_10
.ends


* expanding   symbol:  CLK_div_96.sym # of pins=5
** sym_path: /home/shahid/GF180Projects/Top_test/top/xschem/CLK_div_96.sym
** sch_path: /home/shahid/GF180Projects/Top_test/top/xschem/CLK_div_96.sch
.subckt CLK_div_96 VSS VDD RST Vdiv96 CLK
*.ipin CLK
*.iopin VSS
*.iopin VDD
*.ipin RST
*.opin Vdiv96
x1 net3 VSS VDD net4 VDD net6 RST VDD JK_flipflop
x2 VSS VDD net7 net8 RST Vdiv96 net4 CLK_div_3
x3 net2 VSS VDD net3 VDD net9 RST VDD JK_flipflop
x4 net1 VSS VDD net2 VDD net10 RST VDD JK_flipflop
x5 net5 VSS VDD net1 VDD net11 RST VDD JK_flipflop
x6 CLK VSS VDD net5 VDD net12 RST VDD JK_flipflop
.ends


* expanding   symbol:  CLK_div_93.sym # of pins=5
** sym_path: /home/shahid/GF180Projects/Top_test/top/xschem/CLK_div_93.sym
** sch_path: /home/shahid/GF180Projects/Top_test/top/xschem/CLK_div_93.sch
.subckt CLK_div_93 VSS VDD Vdiv93 RST CLK
*.ipin CLK
*.iopin VSS
*.iopin VDD
*.opin Vdiv93
*.ipin RST
x1 VSS VDD net2 net3 net4 net5 net6 net1 RST CLK CLK_div_31
x2 VSS VDD net7 net8 RST Vdiv93 net1 CLK_div_3
.ends


* expanding   symbol:  CLK_div_99.sym # of pins=5
** sym_path: /home/shahid/GF180Projects/Top_test/top/xschem/CLK_div_99.sym
** sch_path: /home/shahid/GF180Projects/Top_test/top/xschem/CLK_div_99.sch
.subckt CLK_div_99 VSS VDD Vdiv99 RST CLK
*.ipin CLK
*.iopin VSS
*.iopin VDD
*.opin Vdiv99
*.ipin RST
x2 VSS VDD net3 net4 RST net2 net1 CLK_div_3
x3 VSS VDD net5 net6 RST net1 CLK CLK_div_3
x1 VSS VDD net7 net8 RST Vdiv99 net9 net10 net2 CLK_div_11_new
.ends


* expanding   symbol:  dec_3x8_updated.sym # of pins=13
** sym_path: /home/shahid/GF180Projects/Top_test/top/xschem/dec_3x8_updated.sym
** sch_path: /home/shahid/GF180Projects/Top_test/top/xschem/dec_3x8_updated.sch
.subckt dec_3x8_updated IN1 VSS VDD D0 D1 D2 D3 D4 D5 D6 D7 IN3 IN2
*.ipin IN2
*.ipin IN1
*.iopin VSS
*.iopin VDD
*.opin D0
*.opin D1
*.opin D2
*.opin D3
*.opin D4
*.opin D5
*.opin D6
*.opin D7
*.ipin IN3
x1 VSS IN1 IN1B VDD inv_my
x2 VSS IN2 IN2B VDD inv_my
x3 VSS IN3 IN3B VDD inv_my
x4 IN1B VSS VDD D0 IN2B IN3B and_3
x5 IN1B VSS VDD D1 IN2B IN3 and_3
x6 IN1B VSS VDD D2 IN2 IN3B and_3
x7 IN1B VSS VDD D3 IN2 IN3 and_3
x8 IN1 VSS VDD D4 IN2B IN3B and_3
x9 IN1 VSS VDD D5 IN2B IN3 and_3
x10 IN1 VSS VDD D6 IN2 IN3B and_3
x11 IN1 VSS VDD D7 IN2 IN3 and_3
.ends


* expanding   symbol:  4x1_mux.sym # of pins=9
** sym_path: /home/shahid/GF180Projects/Top_test/top/xschem/4x1_mux.sym
** sch_path: /home/shahid/GF180Projects/Top_test/top/xschem/4x1_mux.sch
.subckt 4x1_mux VDD S1 VSS I2 I3 S0 I0 I1 OUT
*.iopin VDD
*.iopin VSS
*.ipin S1
*.opin OUT
*.ipin I2
*.ipin I3
*.ipin S0
*.ipin I0
*.ipin I1
x1 VSS S0 net1 I0 I1 VDD 2x1_mux
x2 VSS S0 net2 I2 I3 VDD 2x1_mux
x3 VSS S1 OUT net1 net2 VDD 2x1_mux
.ends


* expanding   symbol:  decoder_2x4.sym # of pins=8
** sym_path: /home/shahid/GF180Projects/Top_test/top/xschem/decoder_2x4.sym
** sch_path: /home/shahid/GF180Projects/Top_test/top/xschem/decoder_2x4.sch
.subckt decoder_2x4 IN1 VSS VDD D0 D1 D2 D3 IN2
*.ipin IN2
*.ipin IN1
*.iopin VSS
*.iopin VDD
*.opin D0
*.opin D1
*.opin D2
*.opin D3
x1 VSS IN1 IN1B VDD inv_my
x6 IN1B VSS VDD D0 IN2B and_2
x2 VSS IN2 IN2B VDD inv_my
x3 IN1 VSS VDD D1 IN2B and_2
x4 IN1B VSS VDD D2 IN2 and_2
x5 IN1 VSS VDD D3 IN2 and_2
.ends


* expanding   symbol:  CLK_div_2.sym # of pins=5
** sym_path: /home/shahid/GF180Projects/Top_test/top/xschem/CLK_div_2.sym
** sch_path: /home/shahid/GF180Projects/Top_test/top/xschem/CLK_div_2.sch
.subckt CLK_div_2 VSS VDD Q0 RST CLK
*.ipin CLK
*.iopin VSS
*.iopin VDD
*.opin Q0
*.ipin RST
x1 CLK VSS VDD Q0 VDD net1 RST VDD JK_flipflop
.ends


* expanding   symbol:  CLK_div_3.sym # of pins=7
** sym_path: /home/shahid/GF180Projects/Top_test/top/xschem/CLK_div_3.sym
** sch_path: /home/shahid/GF180Projects/Top_test/top/xschem/CLK_div_3.sch
.subckt CLK_div_3 VSS VDD Q0 Q1 RST Vdiv3 CLK
*.ipin CLK
*.iopin VSS
*.iopin VDD
*.opin Q0
*.opin Q1
*.ipin RST
*.opin Vdiv3
x1 CLK VSS VDD Q1 net1 net3 RST VDD JK_flipflop
x2 CLK VSS VDD Q0 Q1 net1 RST VDD JK_flipflop
x4 Q0 VSS VDD Vdiv3 net2 or_2
x3 Q1 VSS VDD net2 CLK and_2
.ends


* expanding   symbol:  CLK_div_4.sym # of pins=6
** sym_path: /home/shahid/GF180Projects/Top_test/top/xschem/CLK_div_4.sym
** sch_path: /home/shahid/GF180Projects/Top_test/top/xschem/CLK_div_4.sch
.subckt CLK_div_4 VSS VDD Q0 Q1 RST CLK
*.ipin CLK
*.iopin VSS
*.iopin VDD
*.opin Q0
*.opin Q1
*.ipin RST
x1 CLK VSS VDD Q0 VDD net1 RST VDD JK_flipflop
x2 Q0 VSS VDD Q1 VDD net2 RST VDD JK_flipflop
.ends


* expanding   symbol:  res_sch.sym # of pins=3
** sym_path: /home/shahid/GF180Projects/Top_test/top/xschem/res_sch.sym
** sch_path: /home/shahid/GF180Projects/Top_test/top/xschem/res_sch.sch
.subckt res_sch A B VDD
*.iopin VDD
*.iopin A
*.iopin B
XR1 B A VDD ppolyf_u r_width=0.8e-6 r_length=100e-6 m=1
.ends


* expanding   symbol:  cap80p.sym # of pins=2
** sym_path: /home/shahid/GF180Projects/Top_test/top/xschem/cap80p.sym
** sch_path: /home/shahid/GF180Projects/Top_test/top/xschem/cap80p.sch
.subckt cap80p N P
*.iopin P
*.iopin N
XC1 P N cap_mim_2f0_m4m5_noshield c_width=25e-6 c_length=25e-6 m=64
.ends


* expanding   symbol:  cap3p.sym # of pins=2
** sym_path: /home/shahid/GF180Projects/Top_test/top/xschem/cap3p.sym
** sch_path: /home/shahid/GF180Projects/Top_test/top/xschem/cap3p.sch
.subckt cap3p Nn Pp
*.iopin Pp
*.iopin Nn
XC1 Pp Nn cap_mim_2f0_m4m5_noshield c_width=42.5e-6 c_length=42.5e-6 m=1
.ends


* expanding   symbol:  GF_INV.sym # of pins=4
** sym_path: /home/shahid/GF180Projects/Top_test/top/xschem/GF_INV.sym
** sch_path: /home/shahid/GF180Projects/Top_test/top/xschem/GF_INV.sch
.subckt GF_INV VSS VDD OUT IN
*.iopin VDD
*.iopin VSS
*.ipin IN
*.opin OUT
XM1 OUT IN VSS VSS nfet_03v3 L=350n W=4u nf=1 ad='int((nf+1)/2) * W/nf * 0.18u' as='int((nf+2)/2) * W/nf * 0.18u'
+ pd='2*int((nf+1)/2) * (W/nf + 0.18u)' ps='2*int((nf+2)/2) * (W/nf + 0.18u)' nrd='0.18u / W' nrs='0.18u / W'
+ sa=0 sb=0 sd=0 m=1
XM2 OUT IN VDD VDD pfet_03v3 L=350n W=2u nf=1 ad='int((nf+1)/2) * W/nf * 0.18u' as='int((nf+2)/2) * W/nf * 0.18u'
+ pd='2*int((nf+1)/2) * (W/nf + 0.18u)' ps='2*int((nf+2)/2) * (W/nf + 0.18u)' nrd='0.18u / W' nrs='0.18u / W'
+ sa=0 sb=0 sd=0 m=1
.ends


* expanding   symbol:  GF_INV_1.sym # of pins=4
** sym_path: /home/shahid/GF180Projects/Top_test/top/xschem/GF_INV_1.sym
** sch_path: /home/shahid/GF180Projects/Top_test/top/xschem/GF_INV_1.sch
.subckt GF_INV_1 VSS VDD OUT IN
*.iopin VDD
*.iopin VSS
*.ipin IN
*.opin OUT
XM1 OUT IN VSS VSS nfet_03v3 L=350n W=700n nf=1 ad='int((nf+1)/2) * W/nf * 0.18u' as='int((nf+2)/2) * W/nf * 0.18u'
+ pd='2*int((nf+1)/2) * (W/nf + 0.18u)' ps='2*int((nf+2)/2) * (W/nf + 0.18u)' nrd='0.18u / W' nrs='0.18u / W'
+ sa=0 sb=0 sd=0 m=1
XM2 OUT IN VDD VDD pfet_03v3 L=350n W=350n nf=1 ad='int((nf+1)/2) * W/nf * 0.18u' as='int((nf+2)/2) * W/nf * 0.18u'
+ pd='2*int((nf+1)/2) * (W/nf + 0.18u)' ps='2*int((nf+2)/2) * (W/nf + 0.18u)' nrd='0.18u / W' nrs='0.18u / W'
+ sa=0 sb=0 sd=0 m=1
.ends


* expanding   symbol:  GF_INV_4.sym # of pins=4
** sym_path: /home/shahid/GF180Projects/Top_test/top/xschem/GF_INV_4.sym
** sch_path: /home/shahid/GF180Projects/Top_test/top/xschem/GF_INV_4.sch
.subckt GF_INV_4 VSS VDD OUT IN
*.iopin VDD
*.iopin VSS
*.ipin IN
*.opin OUT
XM1 OUT IN VSS VSS nfet_03v3 L=350n W=1.4u nf=1 ad='int((nf+1)/2) * W/nf * 0.18u' as='int((nf+2)/2) * W/nf * 0.18u'
+ pd='2*int((nf+1)/2) * (W/nf + 0.18u)' ps='2*int((nf+2)/2) * (W/nf + 0.18u)' nrd='0.18u / W' nrs='0.18u / W'
+ sa=0 sb=0 sd=0 m=1
XM2 OUT IN VDD VDD pfet_03v3 L=350n W=2.8u nf=1 ad='int((nf+1)/2) * W/nf * 0.18u' as='int((nf+2)/2) * W/nf * 0.18u'
+ pd='2*int((nf+1)/2) * (W/nf + 0.18u)' ps='2*int((nf+2)/2) * (W/nf + 0.18u)' nrd='0.18u / W' nrs='0.18u / W'
+ sa=0 sb=0 sd=0 m=1
.ends


* expanding   symbol:  GF_INV_16.sym # of pins=4
** sym_path: /home/shahid/GF180Projects/Top_test/top/xschem/GF_INV_16.sym
** sch_path: /home/shahid/GF180Projects/Top_test/top/xschem/GF_INV_16.sch
.subckt GF_INV_16 VSS VDD OUT IN
*.iopin VDD
*.iopin VSS
*.ipin IN
*.opin OUT
XM1 OUT IN VSS VSS nfet_03v3 L=350n W=5.6u nf=1 ad='int((nf+1)/2) * W/nf * 0.18u' as='int((nf+2)/2) * W/nf * 0.18u'
+ pd='2*int((nf+1)/2) * (W/nf + 0.18u)' ps='2*int((nf+2)/2) * (W/nf + 0.18u)' nrd='0.18u / W' nrs='0.18u / W'
+ sa=0 sb=0 sd=0 m=1
XM2 OUT IN VDD VDD pfet_03v3 L=350n W=11.2u nf=1 ad='int((nf+1)/2) * W/nf * 0.18u' as='int((nf+2)/2) * W/nf * 0.18u'
+ pd='2*int((nf+1)/2) * (W/nf + 0.18u)' ps='2*int((nf+2)/2) * (W/nf + 0.18u)' nrd='0.18u / W' nrs='0.18u / W'
+ sa=0 sb=0 sd=0 m=1
.ends


* expanding   symbol:  VCO_old.sym # of pins=8
** sym_path: /home/shahid/GF180Projects/Top_test/top/xschem/VCO_old.sym
** sch_path: /home/shahid/GF180Projects/Top_test/top/xschem/VCO_old.sch
.subckt VCO_old VDD VSS VCONT IN INB OUT OUTB EN
*.iopin VDD
*.iopin VSS
*.iopin VCONT
*.iopin IN
*.iopin INB
*.iopin OUT
*.iopin OUTB
*.iopin EN
XM1 OUTB OUT VDD VDD pfet_03v3 L=0.56u W=2u nf=1 ad='int((nf+1)/2) * W/nf * 0.18u' as='int((nf+2)/2) * W/nf * 0.18u'
+ pd='2*int((nf+1)/2) * (W/nf + 0.18u)' ps='2*int((nf+2)/2) * (W/nf + 0.18u)' nrd='0.18u / W' nrs='0.18u / W'
+ sa=0 sb=0 sd=0 m=1
XM2 net3 net1 VDD VDD pfet_03v3 L=0.56u W=2u nf=1 ad='int((nf+1)/2) * W/nf * 0.18u' as='int((nf+2)/2) * W/nf * 0.18u'
+ pd='2*int((nf+1)/2) * (W/nf + 0.18u)' ps='2*int((nf+2)/2) * (W/nf + 0.18u)' nrd='0.18u / W' nrs='0.18u / W'
+ sa=0 sb=0 sd=0 m=1
XM4 OUT OUTB VDD VDD pfet_03v3 L=0.56u W=2u nf=1 ad='int((nf+1)/2) * W/nf * 0.18u' as='int((nf+2)/2) * W/nf * 0.18u'
+ pd='2*int((nf+1)/2) * (W/nf + 0.18u)' ps='2*int((nf+2)/2) * (W/nf + 0.18u)' nrd='0.18u / W' nrs='0.18u / W'
+ sa=0 sb=0 sd=0 m=1
XM5 OUTB OUTB net3 VDD pfet_03v3 L=0.56u W=2u nf=1 ad='int((nf+1)/2) * W/nf * 0.18u' as='int((nf+2)/2) * W/nf * 0.18u'
+ pd='2*int((nf+1)/2) * (W/nf + 0.18u)' ps='2*int((nf+2)/2) * (W/nf + 0.18u)' nrd='0.18u / W' nrs='0.18u / W'
+ sa=0 sb=0 sd=0 m=1
XM6 OUT OUT net3 VDD pfet_03v3 L=0.56u W=2u nf=1 ad='int((nf+1)/2) * W/nf * 0.18u' as='int((nf+2)/2) * W/nf * 0.18u'
+ pd='2*int((nf+1)/2) * (W/nf + 0.18u)' ps='2*int((nf+2)/2) * (W/nf + 0.18u)' nrd='0.18u / W' nrs='0.18u / W'
+ sa=0 sb=0 sd=0 m=1
XM7 OUT IN net2 VSS nfet_03v3 L=0.56u W=1u nf=1 ad='int((nf+1)/2) * W/nf * 0.18u' as='int((nf+2)/2) * W/nf * 0.18u'
+ pd='2*int((nf+1)/2) * (W/nf + 0.18u)' ps='2*int((nf+2)/2) * (W/nf + 0.18u)' nrd='0.18u / W' nrs='0.18u / W'
+ sa=0 sb=0 sd=0 m=1
XM8 net2 EN VSS VSS nfet_03v3 L=0.56u W=1.63u nf=1 ad='int((nf+1)/2) * W/nf * 0.18u' as='int((nf+2)/2) * W/nf * 0.18u'
+ pd='2*int((nf+1)/2) * (W/nf + 0.18u)' ps='2*int((nf+2)/2) * (W/nf + 0.18u)' nrd='0.18u / W' nrs='0.18u / W'
+ sa=0 sb=0 sd=0 m=1
XM9 OUTB INB net2 VSS nfet_03v3 L=0.56u W=1u nf=1 ad='int((nf+1)/2) * W/nf * 0.18u' as='int((nf+2)/2) * W/nf * 0.18u'
+ pd='2*int((nf+1)/2) * (W/nf + 0.18u)' ps='2*int((nf+2)/2) * (W/nf + 0.18u)' nrd='0.18u / W' nrs='0.18u / W'
+ sa=0 sb=0 sd=0 m=1
XM3 net1 net1 VDD VDD pfet_03v3 L=0.56u W=2u nf=1 ad='int((nf+1)/2) * W/nf * 0.18u' as='int((nf+2)/2) * W/nf * 0.18u'
+ pd='2*int((nf+1)/2) * (W/nf + 0.18u)' ps='2*int((nf+2)/2) * (W/nf + 0.18u)' nrd='0.18u / W' nrs='0.18u / W'
+ sa=0 sb=0 sd=0 m=1
XM10 net1 VCONT VSS VSS nfet_03v3 L=0.56u W=2u nf=1 ad='int((nf+1)/2) * W/nf * 0.18u' as='int((nf+2)/2) * W/nf * 0.18u'
+ pd='2*int((nf+1)/2) * (W/nf + 0.18u)' ps='2*int((nf+2)/2) * (W/nf + 0.18u)' nrd='0.18u / W' nrs='0.18u / W'
+ sa=0 sb=0 sd=0 m=1
.ends


* expanding   symbol:  CLK_div_5.sym # of pins=8
** sym_path: /home/shahid/GF180Projects/Top_test/top/xschem/CLK_div_5.sym
** sch_path: /home/shahid/GF180Projects/Top_test/top/xschem/CLK_div_5.sch
.subckt CLK_div_5 VSS VDD Q0 Q1 RST Vdiv5 Q2 CLK
*.ipin CLK
*.iopin VSS
*.iopin VDD
*.opin Q0
*.opin Q1
*.ipin RST
*.opin Vdiv5
*.opin Q2
x1 CLK VSS VDD Q1 Q0 net7 RST Q0 JK_flipflop
x2 CLK VSS VDD Q2 net1 net2 RST VDD JK_flipflop
x3 CLK VSS VDD Q0 net2 net8 RST VDD JK_flipflop
x17 net5 VSS VDD net3 net6 Q2 nor_3
x18 VSS VDD Vdiv5 net3 GF_INV
x7 Q1 VSS VDD net1 Q0 and_2
x4 Q0 VSS VDD net5 Q1 and_2
x5 Q1 VSS VDD net4 CLK and_2
x6 VSS net4 net6 VDD Buffer_Delayed
.ends


* expanding   symbol:  Load_BUFF.sym # of pins=4
** sym_path: /home/shahid/GF180Projects/Top_test/top/xschem/Load_BUFF.sym
** sch_path: /home/shahid/GF180Projects/Top_test/top/xschem/Load_BUFF.sch
.subckt Load_BUFF VSS IN OUT VDD
*.iopin VDD
*.iopin VSS
*.ipin IN
*.opin OUT
x3 VSS VDD net1 IN INV_BUFF
x1 VSS VDD OUT net1 INV_BUFF
.ends


* expanding   symbol:  2x1_mux.sym # of pins=6
** sym_path: /home/shahid/GF180Projects/Top_test/top/xschem/2x1_mux.sym
** sch_path: /home/shahid/GF180Projects/Top_test/top/xschem/2x1_mux.sch
.subckt 2x1_mux VSS Sel OUT I0 I1 VDD
*.iopin VDD
*.iopin VSS
*.ipin Sel
*.opin OUT
*.ipin I0
*.ipin I1
x1 net2 VSS VDD OUT net3 NAND
x2 Sel VSS VDD net3 I1 NAND
x3 net1 VSS VDD net2 I0 NAND
x4 VSS Sel net1 VDD inv_my
.ends


* expanding   symbol:  CLK_div_10.sym # of pins=9
** sym_path: /home/shahid/GF180Projects/Top_test/top/xschem/CLK_div_10.sym
** sch_path: /home/shahid/GF180Projects/Top_test/top/xschem/CLK_div_10.sch
.subckt CLK_div_10 VSS VDD Q0 Q1 RST Vdiv10 Q2 Q3 CLK
*.ipin CLK
*.iopin VSS
*.iopin VDD
*.opin Q0
*.opin Q1
*.ipin RST
*.opin Vdiv10
*.opin Q2
*.opin Q3
x9 net8 VSS VDD Vdiv10 net2 Q3 nor_3
x6 Q0 VSS VDD net1 Q2 and_2
x7 Q2 VSS VDD net2 Q1 and_2
x10 CLK VSS VDD Q0 VDD net5 RST VDD JK_flipflop
x11 Q0 VSS VDD Q1 net4 net6 RST VDD JK_flipflop
x12 Q1 VSS VDD Q2 VDD net7 RST VDD JK_flipflop
x13 Q0 VSS VDD Q3 net3 net4 RST VDD JK_flipflop
x14 Q2 VSS VDD net3 Q1 and_2
x1 VSS net1 net8 VDD Buffer_Delayed
.ends


* expanding   symbol:  CLK_div_7.sym # of pins=8
** sym_path: /home/shahid/GF180Projects/Top_test/top/xschem/CLK_div_7.sym
** sch_path: /home/shahid/GF180Projects/Top_test/top/xschem/CLK_div_7.sch
.subckt CLK_div_7 VSS VDD Q0 Q1 RST Vdiv7 Q2 CLK
*.ipin CLK
*.iopin VSS
*.iopin VDD
*.opin Q0
*.opin Q1
*.ipin RST
*.opin Vdiv7
*.opin Q2
x1 CLK VSS VDD Q0 net1 net7 RST VDD JK_flipflop
x2 net4 VSS VDD net1 net3 or_2
x3 CLK VSS VDD Q1 Q0 net3 RST net2 JK_flipflop
x4 CLK VSS VDD Q2 net5 net4 RST Q1 JK_flipflop
x5 Q0 VSS VDD net2 Q2 or_2
x7 VSS VDD net6 CLK GF_INV
x8 net7 VSS VDD net8 net6 Q2 nor_3
x10 net9 VSS VDD Vdiv7 Q2 or_2
x6 Q1 VSS VDD net5 Q0 and_2
x9 net8 VSS VDD net9 Q1 and_2
.ends


* expanding   symbol:  JK_flipflop.sym # of pins=8
** sym_path: /home/shahid/GF180Projects/Top_test/top/xschem/JK_flipflop.sym
** sch_path: /home/shahid/GF180Projects/Top_test/top/xschem/JK_flipflop.sch
.subckt JK_flipflop CLK VSS VDD Q J Qb RST K
*.ipin K
*.ipin CLK
*.iopin VSS
*.iopin VDD
*.opin Q
*.ipin J
*.opin Qb
*.ipin RST
x1 J VSS VDD net5 Qb CLK nand_3
x2 CLK VSS VDD net6 Q K nand_3
x4 net6 VSS VDD net2 net1 RST nand_3
x9 VSS VDD CLK_b CLK GF_INV
x3 net5 VSS VDD net1 net2 NAND
x5 CLK_b VSS VDD net3 net2 NAND
x6 net1 VSS VDD net4 CLK_b NAND
x7 net4 VSS VDD Q Qb NAND
x8 net3 VSS VDD Qb Q NAND
.ends


* expanding   symbol:  CLK_div_11_new.sym # of pins=9
** sym_path: /home/shahid/GF180Projects/Top_test/top/xschem/CLK_div_11_new.sym
** sch_path: /home/shahid/GF180Projects/Top_test/top/xschem/CLK_div_11_new.sch
.subckt CLK_div_11_new VSS VDD Q0 Q1 RST Vdiv11 Q2 Q3 CLK
*.ipin CLK
*.iopin VSS
*.iopin VDD
*.opin Q0
*.opin Q1
*.ipin RST
*.opin Vdiv11
*.opin Q2
*.opin Q3
x1 CLK VSS VDD Q3 net1 net10 RST net1 JK_flipflop
x2 CLK VSS VDD Q2 net2 net17 RST net2 JK_flipflop
x3 CLK VSS VDD Q1 net3 net9 RST net3 JK_flipflop
x4 CLK VSS VDD Q0 net4 net18 RST net4 JK_flipflop
x5 net5 VSS VDD net1 net6 or_2
x7 VSS VDD net6 net7 GF_INV
x8 Q2 VSS VDD net7 Q1 Q0 nand_3
x10 net9 VSS VDD net4 net10 or_2
x11 net8 VSS VDD net3 Q0 or_2
x13 VSS VDD net14 net11 GF_INV
x14 CLK VSS VDD net11 net12 Q0 nand_3
x17 Q3 VSS VDD net15 net16 net13 nor_3
x18 VSS VDD Vdiv11 net15 GF_INV
x6 Q3 VSS VDD net5 Q1 and_2