* NGSPICE file created from VCO_mag_flat.ext - technology: gf180mcuC

.subckt VCO_PEX VDD EN OUT OUTB VCONT VSS
X0 VDD a_2201_n2780.t12 a_510_n1078# VDD.t101 pfet_03v3 ad=0.26p pd=1.52u as=0.26p ps=1.52u w=1u l=0.56u
X1 VDD GF_INV16_1.IN OUTB.t5 VDD.t173 pfet_03v3 ad=0.728p pd=3.32u as=0.728p ps=3.32u w=2.8u l=0.35u
X2 a_510_2660# a_2201_958.t12 VDD.t184 VDD.t161 pfet_03v3 ad=0.44p pd=2.88u as=0.26p ps=1.52u w=1u l=0.56u
X3 Delay_Cell_mag_2.IN Delay_Cell_mag_2.INB VDD.t40 VDD.t39 pfet_03v3 ad=0.26p pd=1.52u as=0.26p ps=1.52u w=1u l=0.56u
X4 GF_INV1_1.OUT Delay_Cell_mag_1.IN VDD.t183 VDD.t182 pfet_03v3 ad=0.165p pd=1.64u as=0.165p ps=1.64u w=0.35u l=0.35u
X5 a_6953_2661# Delay_Cell_mag_1.IN Delay_Cell_mag_1.IN VDD.t113 pfet_03v3 ad=0.26p pd=1.52u as=0.26p ps=1.52u w=1u l=0.56u
X6 VDD Delay_Cell_mag_2.OUT.t16 Delay_Cell_mag_2.OUTB.t7 VDD.t47 pfet_03v3 ad=0.26p pd=1.52u as=0.26p ps=1.52u w=1u l=0.56u
X7 OUTB GF_INV16_1.IN VSS.t103 VSS.t102 nfet_03v3 ad=0.364p pd=1.92u as=0.616p ps=3.68u w=1.4u l=0.35u
X8 VDD GF_INV16_1.IN OUTB.t4 VDD.t170 pfet_03v3 ad=1.23p pd=6.48u as=0.728p ps=3.32u w=2.8u l=0.35u
X9 a_6953_2661# Delay_Cell_mag_1.INB.t6 Delay_Cell_mag_1.INB.t7 VDD.t120 pfet_03v3 ad=0.26p pd=1.52u as=0.26p ps=1.52u w=1u l=0.56u
X10 Delay_Cell_mag_0.OUT Delay_Cell_mag_0.IN a_7148_n3320# VSS.t17 nfet_03v3 ad=0.26p pd=1.52u as=0.26p ps=1.52u w=1u l=0.56u
X11 VDD Delay_Cell_mag_0.OUTB.t16 Delay_Cell_mag_0.OUT VDD.t124 pfet_03v3 ad=0.26p pd=1.52u as=0.26p ps=1.52u w=1u l=0.56u
X12 VDD Delay_Cell_mag_2.OUT.t17 Delay_Cell_mag_0.INB VDD.t74 pfet_03v3 ad=0.13p pd=1.02u as=0.13p ps=1.02u w=0.5u l=0.35u
X13 a_705_418# Delay_Cell_mag_1.INB.t16 Delay_Cell_mag_2.IN.t6 VSS.t20 nfet_03v3 ad=0.26p pd=1.52u as=0.26p ps=1.52u w=1u l=0.56u
X14 VDD a_2201_958.t13 a_510_2660# VDD.t105 pfet_03v3 ad=0.26p pd=1.52u as=0.26p ps=1.52u w=1u l=0.56u
X15 VDD Delay_Cell_mag_2.IN.t16 Delay_Cell_mag_2.INB VDD.t38 pfet_03v3 ad=0.26p pd=1.52u as=0.26p ps=1.52u w=1u l=0.56u
X16 Delay_Cell_mag_1.IN Delay_Cell_mag_0.OUT a_7148_419# VSS.t41 nfet_03v3 ad=0.26p pd=1.52u as=0.26p ps=1.52u w=1u l=0.56u
X17 OUTB GF_INV16_1.IN VSS.t101 VSS.t100 nfet_03v3 ad=0.364p pd=1.92u as=0.364p ps=1.92u w=1.4u l=0.35u
X18 Delay_Cell_mag_2.INB Delay_Cell_mag_1.IN a_705_418# VSS.t108 nfet_03v3 ad=0.26p pd=1.52u as=0.26p ps=1.52u w=1u l=0.56u
X19 VSS VCONT.t2 a_2201_958.t10 VSS.t37 nfet_03v3 ad=0.26p pd=1.52u as=0.26p ps=1.52u w=1u l=0.56u
X20 Delay_Cell_mag_0.OUTB Delay_Cell_mag_0.OUTB.t10 a_6953_n1078# VDD.t131 pfet_03v3 ad=0.26p pd=1.52u as=0.26p ps=1.52u w=1u l=0.56u
X21 a_7148_419# Delay_Cell_mag_0.OUTB.t18 Delay_Cell_mag_1.INB.t14 VSS.t114 nfet_03v3 ad=0.26p pd=1.52u as=0.26p ps=1.52u w=1u l=0.56u
X22 a_7148_n3320# Delay_Cell_mag_0.INB Delay_Cell_mag_0.OUTB.t3 VSS.t3 nfet_03v3 ad=0.26p pd=1.52u as=0.26p ps=1.52u w=1u l=0.56u
X23 OUT GF_INV16_2.IN VSS.t30 VSS.t29 nfet_03v3 ad=0.364p pd=1.92u as=0.616p ps=3.68u w=1.4u l=0.35u
X24 Delay_Cell_mag_2.IN Delay_Cell_mag_2.IN.t14 a_510_2660# VDD.t39 pfet_03v3 ad=0.26p pd=1.52u as=0.26p ps=1.52u w=1u l=0.56u
X25 GF_INV1_0.OUT Delay_Cell_mag_1.INB.t17 VDD.t63 VDD.t62 pfet_03v3 ad=0.165p pd=1.64u as=0.165p ps=1.64u w=0.35u l=0.35u
X26 VSS GF_INV1_1.OUT GF_INV16_1.IN VSS.t54 nfet_03v3 ad=0.308p pd=2.28u as=0.182p ps=1.22u w=0.7u l=0.35u
X27 Delay_Cell_mag_0.IN Delay_Cell_mag_2.OUTB.t16 VDD.t86 VDD.t85 pfet_03v3 ad=0.13p pd=1.02u as=0.13p ps=1.02u w=0.5u l=0.35u
X28 VDD a_8644_959.t6 a_8644_959.t7 VDD.t134 pfet_03v3 ad=0.26p pd=1.52u as=0.26p ps=1.52u w=1u l=0.56u
X29 Delay_Cell_mag_2.OUTB Delay_Cell_mag_2.OUTB.t14 a_510_n1078# VDD.t87 pfet_03v3 ad=0.26p pd=1.52u as=0.26p ps=1.52u w=1u l=0.56u
X30 Delay_Cell_mag_0.IN Delay_Cell_mag_2.OUTB.t18 VDD.t14 VDD.t13 pfet_03v3 ad=0.13p pd=1.02u as=0.22p ps=1.88u w=0.5u l=0.35u
X31 a_6953_n1078# a_8644_n2780.t13 VDD.t12 VDD.t11 pfet_03v3 ad=0.26p pd=1.52u as=0.26p ps=1.52u w=1u l=0.56u
X32 a_705_n3320# EN.t0 VSS.t51 VSS.t50 nfet_03v3 ad=0.26p pd=1.52u as=0.44p ps=2.88u w=1u l=0.56u
X33 Delay_Cell_mag_0.OUT Delay_Cell_mag_0.OUT a_6953_n1078# VDD.t133 pfet_03v3 ad=0.26p pd=1.52u as=0.44p ps=2.88u w=1u l=0.56u
X34 a_705_418# a_705_418# a_705_418# VSS.t9 nfet_03v3 ad=0.44p pd=2.88u as=4p ps=24u w=1u l=0.56u
X35 a_7148_419# a_7148_419# a_7148_419# VSS.t34 nfet_03v3 ad=0.26p pd=1.52u as=4p ps=24u w=1u l=0.56u
X36 a_510_2660# Delay_Cell_mag_2.INB Delay_Cell_mag_2.INB VDD.t38 pfet_03v3 ad=0.26p pd=1.52u as=0.26p ps=1.52u w=1u l=0.56u
X37 a_705_n3320# Delay_Cell_mag_2.IN.t18 Delay_Cell_mag_2.OUT.t15 VSS.t50 nfet_03v3 ad=0.26p pd=1.52u as=0.26p ps=1.52u w=1u l=0.56u
X38 a_510_n1078# Delay_Cell_mag_2.OUTB.t12 Delay_Cell_mag_2.OUTB.t13 VDD.t55 pfet_03v3 ad=0.26p pd=1.52u as=0.26p ps=1.52u w=1u l=0.56u
X39 a_7148_n3320# a_7148_n3320# a_7148_n3320# VSS.t19 nfet_03v3 ad=0.44p pd=2.88u as=4p ps=24u w=1u l=0.56u
X40 GF_INV16_1.IN GF_INV1_1.OUT VDD.t143 VDD.t142 pfet_03v3 ad=0.364p pd=1.92u as=0.616p ps=3.68u w=1.4u l=0.35u
X41 VSS VCONT.t3 a_2201_n2780.t10 VSS.t7 nfet_03v3 ad=0.26p pd=1.52u as=0.26p ps=1.52u w=1u l=0.56u
X42 Delay_Cell_mag_0.OUTB Delay_Cell_mag_0.OUT VDD.t132 VDD.t131 pfet_03v3 ad=0.26p pd=1.52u as=0.26p ps=1.52u w=1u l=0.56u
X43 VDD Delay_Cell_mag_2.OUTB.t19 Delay_Cell_mag_0.IN VDD.t5 pfet_03v3 ad=0.13p pd=1.02u as=0.13p ps=1.02u w=0.5u l=0.35u
X44 a_6953_n1078# Delay_Cell_mag_0.OUT Delay_Cell_mag_0.OUT VDD.t77 pfet_03v3 ad=0.26p pd=1.52u as=0.26p ps=1.52u w=1u l=0.56u
X45 GF_INV16_1.IN GF_INV1_1.OUT VSS.t53 VSS.t52 nfet_03v3 ad=0.182p pd=1.22u as=0.308p ps=2.28u w=0.7u l=0.35u
X46 VDD GF_INV1_0.OUT GF_INV16_2.IN VDD.t152 pfet_03v3 ad=0.616p pd=3.68u as=0.364p ps=1.92u w=1.4u l=0.35u
X47 a_6953_2661# a_8644_959.t14 VDD.t135 VDD.t134 pfet_03v3 ad=0.26p pd=1.52u as=0.26p ps=1.52u w=1u l=0.56u
X48 Delay_Cell_mag_1.INB Delay_Cell_mag_1.IN VDD.t181 VDD.t43 pfet_03v3 ad=0.26p pd=1.52u as=0.26p ps=1.52u w=1u l=0.56u
X49 Delay_Cell_mag_2.OUTB Delay_Cell_mag_2.OUT.t18 VDD.t88 VDD.t87 pfet_03v3 ad=0.26p pd=1.52u as=0.26p ps=1.52u w=1u l=0.56u
X50 a_7148_419# Delay_Cell_mag_0.OUT Delay_Cell_mag_1.IN VSS.t40 nfet_03v3 ad=0.26p pd=1.52u as=0.26p ps=1.52u w=1u l=0.56u
X51 VDD a_8644_n2780.t7 a_8644_n2780.t8 VDD.t11 pfet_03v3 ad=0.26p pd=1.52u as=0.26p ps=1.52u w=1u l=0.56u
X52 Delay_Cell_mag_2.OUTB Delay_Cell_mag_2.INB a_705_n3320# VSS.t7 nfet_03v3 ad=0.26p pd=1.52u as=0.26p ps=1.52u w=1u l=0.56u
X53 Delay_Cell_mag_0.OUT Delay_Cell_mag_0.OUTB.t19 VDD.t187 VDD.t133 pfet_03v3 ad=0.26p pd=1.52u as=0.44p ps=2.88u w=1u l=0.56u
X54 a_705_418# a_705_418# a_705_418# VSS.t8 nfet_03v3 ad=0.26p pd=1.52u as=0 ps=0 w=1u l=0.56u
X55 VDD a_2201_958.t6 a_2201_958.t7 VDD.t83 pfet_03v3 ad=0.26p pd=1.52u as=0.26p ps=1.52u w=1u l=0.56u
X56 VDD a_8644_959.t15 a_6953_2661# VDD.t116 pfet_03v3 ad=0.26p pd=1.52u as=0.26p ps=1.52u w=1u l=0.56u
X57 Delay_Cell_mag_1.INB Delay_Cell_mag_0.OUTB.t20 a_7148_419# VSS.t31 nfet_03v3 ad=0.26p pd=1.52u as=0.26p ps=1.52u w=1u l=0.56u
X58 VDD a_2201_n2780.t14 a_510_n1078# VDD.t97 pfet_03v3 ad=0.26p pd=1.52u as=0.26p ps=1.52u w=1u l=0.56u
X59 VDD Delay_Cell_mag_2.OUT.t19 Delay_Cell_mag_0.INB VDD.t50 pfet_03v3 ad=0.22p pd=1.88u as=0.13p ps=1.02u w=0.5u l=0.35u
X60 VSS VCONT.t5 a_8644_959.t10 VSS.t41 nfet_03v3 ad=0.26p pd=1.52u as=0.26p ps=1.52u w=1u l=0.56u
X61 a_705_418# Delay_Cell_mag_1.IN Delay_Cell_mag_2.INB VSS.t44 nfet_03v3 ad=0.26p pd=1.52u as=0.26p ps=1.52u w=1u l=0.56u
X62 Delay_Cell_mag_0.OUTB Delay_Cell_mag_0.OUTB.t8 a_6953_n1078# VDD.t129 pfet_03v3 ad=0.26p pd=1.52u as=0.26p ps=1.52u w=1u l=0.56u
X63 VDD a_8644_959.t16 a_6953_2661# VDD.t145 pfet_03v3 ad=0.26p pd=1.52u as=0.26p ps=1.52u w=1u l=0.56u
X64 VDD Delay_Cell_mag_1.IN Delay_Cell_mag_1.INB.t12 VDD.t42 pfet_03v3 ad=0.26p pd=1.52u as=0.26p ps=1.52u w=1u l=0.56u
X65 GF_INV1_1.OUT Delay_Cell_mag_1.IN VSS.t107 VSS.t106 nfet_03v3 ad=0.308p pd=2.28u as=0.308p ps=2.28u w=0.7u l=0.35u
X66 VDD Delay_Cell_mag_2.OUT.t20 Delay_Cell_mag_2.OUTB.t5 VDD.t55 pfet_03v3 ad=0.26p pd=1.52u as=0.26p ps=1.52u w=1u l=0.56u
X67 VDD GF_INV16_2.IN OUT.t3 VDD.t71 pfet_03v3 ad=0.728p pd=3.32u as=0.728p ps=3.32u w=2.8u l=0.35u
X68 Delay_Cell_mag_2.OUT Delay_Cell_mag_2.IN.t19 a_705_n3320# VSS.t113 nfet_03v3 ad=0.26p pd=1.52u as=0.26p ps=1.52u w=1u l=0.56u
X69 VDD Delay_Cell_mag_0.OUTB.t22 Delay_Cell_mag_0.OUT VDD.t77 pfet_03v3 ad=0.26p pd=1.52u as=0.26p ps=1.52u w=1u l=0.56u
X70 VDD GF_INV16_2.IN OUT.t2 VDD.t68 pfet_03v3 ad=1.23p pd=6.48u as=0.728p ps=3.32u w=2.8u l=0.35u
X71 Delay_Cell_mag_1.INB Delay_Cell_mag_1.INB.t4 a_6953_2661# VDD.t43 pfet_03v3 ad=0.26p pd=1.52u as=0.26p ps=1.52u w=1u l=0.56u
X72 a_705_n3320# Delay_Cell_mag_2.INB Delay_Cell_mag_2.OUTB.t2 VSS.t6 nfet_03v3 ad=0.26p pd=1.52u as=0.26p ps=1.52u w=1u l=0.56u
X73 a_510_2660# a_2201_958.t15 VDD.t84 VDD.t83 pfet_03v3 ad=0.26p pd=1.52u as=0.26p ps=1.52u w=1u l=0.56u
X74 Delay_Cell_mag_2.INB Delay_Cell_mag_2.IN.t20 VDD.t16 VDD.t15 pfet_03v3 ad=0.26p pd=1.52u as=0.26p ps=1.52u w=1u l=0.56u
X75 VSS VCONT.t8 a_8644_959.t9 VSS.t34 nfet_03v3 ad=0.44p pd=2.88u as=0.26p ps=1.52u w=1u l=0.56u
X76 Delay_Cell_mag_0.IN Delay_Cell_mag_2.OUTB.t20 VSS.t124 VSS.t123 nfet_03v3 ad=0.26p pd=1.52u as=0.26p ps=1.52u w=1u l=0.35u
X77 Delay_Cell_mag_0.INB Delay_Cell_mag_2.OUT.t21 VSS.t66 VSS.t65 nfet_03v3 ad=0.26p pd=1.52u as=0.26p ps=1.52u w=1u l=0.35u
X78 Delay_Cell_mag_0.INB Delay_Cell_mag_2.OUT.t22 VSS.t64 VSS.t63 nfet_03v3 ad=0.26p pd=1.52u as=0.44p ps=2.88u w=1u l=0.35u
X79 OUT GF_INV16_2.IN VSS.t28 VSS.t27 nfet_03v3 ad=0.364p pd=1.92u as=0.364p ps=1.92u w=1.4u l=0.35u
X80 Delay_Cell_mag_0.IN Delay_Cell_mag_2.OUTB.t21 VSS.t122 VSS.t121 nfet_03v3 ad=0.26p pd=1.52u as=0.44p ps=2.88u w=1u l=0.35u
X81 a_7148_n3320# Delay_Cell_mag_0.INB Delay_Cell_mag_0.OUTB.t2 VSS.t2 nfet_03v3 ad=0.26p pd=1.52u as=0.26p ps=1.52u w=1u l=0.56u
X82 Delay_Cell_mag_2.OUT Delay_Cell_mag_2.IN.t21 a_705_n3320# VSS.t112 nfet_03v3 ad=0.26p pd=1.52u as=0.26p ps=1.52u w=1u l=0.56u
X83 Delay_Cell_mag_0.OUTB Delay_Cell_mag_0.OUT VDD.t130 VDD.t129 pfet_03v3 ad=0.26p pd=1.52u as=0.26p ps=1.52u w=1u l=0.56u
X84 GF_INV1_0.OUT Delay_Cell_mag_1.INB.t19 VSS.t11 VSS.t10 nfet_03v3 ad=0.308p pd=2.28u as=0.308p ps=2.28u w=0.7u l=0.35u
X85 a_6953_2661# Delay_Cell_mag_1.INB.t2 Delay_Cell_mag_1.INB.t3 VDD.t42 pfet_03v3 ad=0.26p pd=1.52u as=0.26p ps=1.52u w=1u l=0.56u
X86 a_705_n3320# a_705_n3320# a_705_n3320# VSS.t36 nfet_03v3 ad=0.44p pd=2.88u as=4p ps=24u w=1u l=0.56u
X87 VSS GF_INV16_1.IN OUTB.t7 VSS.t97 nfet_03v3 ad=0.364p pd=1.92u as=0.364p ps=1.92u w=1.4u l=0.35u
X88 a_705_418# Delay_Cell_mag_1.INB.t20 Delay_Cell_mag_2.IN.t4 VSS.t12 nfet_03v3 ad=0.26p pd=1.52u as=0.26p ps=1.52u w=1u l=0.56u
X89 Delay_Cell_mag_2.OUTB Delay_Cell_mag_2.OUTB.t10 a_510_n1078# VDD.t17 pfet_03v3 ad=0.26p pd=1.52u as=0.26p ps=1.52u w=1u l=0.56u
X90 VDD a_2201_958.t16 a_510_2660# VDD.t8 pfet_03v3 ad=0.26p pd=1.52u as=0.26p ps=1.52u w=1u l=0.56u
X91 Delay_Cell_mag_0.OUT Delay_Cell_mag_0.OUT a_6953_n1078# VDD.t128 pfet_03v3 ad=0.26p pd=1.52u as=0.26p ps=1.52u w=1u l=0.56u
X92 a_7148_419# Delay_Cell_mag_0.OUTB.t23 Delay_Cell_mag_1.INB.t9 VSS.t32 nfet_03v3 ad=0.26p pd=1.52u as=0.26p ps=1.52u w=1u l=0.56u
X93 VSS GF_INV16_1.IN OUTB.t6 VSS.t94 nfet_03v3 ad=0.616p pd=3.68u as=0.364p ps=1.92u w=1.4u l=0.35u
X94 Delay_Cell_mag_2.IN Delay_Cell_mag_1.INB.t21 a_705_418# VSS.t13 nfet_03v3 ad=0.26p pd=1.52u as=0.26p ps=1.52u w=1u l=0.56u
X95 VDD Delay_Cell_mag_2.IN.t22 Delay_Cell_mag_2.INB VDD.t0 pfet_03v3 ad=0.26p pd=1.52u as=0.26p ps=1.52u w=1u l=0.56u
X96 VDD Delay_Cell_mag_2.OUTB.t23 Delay_Cell_mag_0.IN VDD.t26 pfet_03v3 ad=0.22p pd=1.88u as=0.13p ps=1.02u w=0.5u l=0.35u
X97 a_510_n1078# Delay_Cell_mag_2.OUT.t9 Delay_Cell_mag_2.OUT.t10 VDD.t59 pfet_03v3 ad=0.26p pd=1.52u as=0.26p ps=1.52u w=1u l=0.56u
X98 VSS VCONT.t10 a_2201_958.t8 VSS.t8 nfet_03v3 ad=0.44p pd=2.88u as=0.26p ps=1.52u w=1u l=0.56u
X99 a_510_n1078# a_2201_n2780.t16 VDD.t96 VDD.t93 pfet_03v3 ad=0.26p pd=1.52u as=0.26p ps=1.52u w=1u l=0.56u
X100 VSS Delay_Cell_mag_2.OUTB.t24 Delay_Cell_mag_0.IN VSS.t118 nfet_03v3 ad=0.26p pd=1.52u as=0.26p ps=1.52u w=1u l=0.35u
X101 VSS Delay_Cell_mag_2.OUT.t23 Delay_Cell_mag_0.INB VSS.t60 nfet_03v3 ad=0.26p pd=1.52u as=0.26p ps=1.52u w=1u l=0.35u
X102 Delay_Cell_mag_2.INB Delay_Cell_mag_2.INB a_510_2660# VDD.t15 pfet_03v3 ad=0.26p pd=1.52u as=0.26p ps=1.52u w=1u l=0.56u
X103 VDD Delay_Cell_mag_1.INB.t22 Delay_Cell_mag_1.IN VDD.t44 pfet_03v3 ad=0.26p pd=1.52u as=0.26p ps=1.52u w=1u l=0.56u
X104 a_7148_n3320# Delay_Cell_mag_0.IN Delay_Cell_mag_0.OUT VSS.t16 nfet_03v3 ad=0.26p pd=1.52u as=0.26p ps=1.52u w=1u l=0.56u
X105 a_6953_n1078# Delay_Cell_mag_0.OUTB.t6 Delay_Cell_mag_0.OUTB.t7 VDD.t125 pfet_03v3 ad=0.26p pd=1.52u as=0.26p ps=1.52u w=1u l=0.56u
X106 a_705_418# EN.t1 VSS.t45 VSS.t44 nfet_03v3 ad=0.26p pd=1.52u as=0.44p ps=2.88u w=1u l=0.56u
X107 VSS VCONT.t11 a_2201_n2780.t8 VSS.t35 nfet_03v3 ad=0.44p pd=2.88u as=0.26p ps=1.52u w=1u l=0.56u
X108 VSS EN.t2 a_7148_n3320# VSS.t1 nfet_03v3 ad=0.26p pd=1.52u as=0.26p ps=1.52u w=1u l=0.56u
X109 Delay_Cell_mag_2.OUTB Delay_Cell_mag_2.OUT.t24 VDD.t108 VDD.t17 pfet_03v3 ad=0.26p pd=1.52u as=0.26p ps=1.52u w=1u l=0.56u
X110 a_705_n3320# a_705_n3320# a_705_n3320# VSS.t35 nfet_03v3 ad=0.26p pd=1.52u as=0 ps=0 w=1u l=0.56u
X111 Delay_Cell_mag_1.IN Delay_Cell_mag_1.INB.t23 VDD.t110 VDD.t109 pfet_03v3 ad=0.26p pd=1.52u as=0.26p ps=1.52u w=1u l=0.56u
X112 Delay_Cell_mag_0.OUT Delay_Cell_mag_0.OUTB.t24 VDD.t193 VDD.t128 pfet_03v3 ad=0.26p pd=1.52u as=0.26p ps=1.52u w=1u l=0.56u
X113 Delay_Cell_mag_0.OUTB Delay_Cell_mag_0.INB a_7148_n3320# VSS.t1 nfet_03v3 ad=0.26p pd=1.52u as=0.26p ps=1.52u w=1u l=0.56u
X114 a_510_2660# Delay_Cell_mag_2.INB Delay_Cell_mag_2.INB VDD.t0 pfet_03v3 ad=0.26p pd=1.52u as=0.26p ps=1.52u w=1u l=0.56u
X115 VDD GF_INV1_1.OUT GF_INV16_1.IN VDD.t139 pfet_03v3 ad=0.616p pd=3.68u as=0.364p ps=1.92u w=1.4u l=0.35u
X116 GF_INV16_2.IN GF_INV1_0.OUT VDD.t151 VDD.t150 pfet_03v3 ad=0.364p pd=1.92u as=0.616p ps=3.68u w=1.4u l=0.35u
X117 VDD Delay_Cell_mag_2.OUTB.t25 Delay_Cell_mag_2.OUT.t2 VDD.t59 pfet_03v3 ad=0.26p pd=1.52u as=0.26p ps=1.52u w=1u l=0.56u
X118 a_510_n1078# Delay_Cell_mag_2.OUT.t7 Delay_Cell_mag_2.OUT.t8 VDD.t18 pfet_03v3 ad=0.26p pd=1.52u as=0.26p ps=1.52u w=1u l=0.56u
X119 OUTB GF_INV16_1.IN VDD.t169 VDD.t168 pfet_03v3 ad=0.728p pd=3.32u as=1.23p ps=6.48u w=2.8u l=0.35u
X120 VDD a_8644_n2780.t14 a_6953_n1078# VDD.t23 pfet_03v3 ad=0.26p pd=1.52u as=0.26p ps=1.52u w=1u l=0.56u
X121 Delay_Cell_mag_1.IN Delay_Cell_mag_1.INB.t24 VDD.t112 VDD.t111 pfet_03v3 ad=0.26p pd=1.52u as=0.26p ps=1.52u w=1u l=0.56u
X122 Delay_Cell_mag_2.OUT Delay_Cell_mag_2.OUT.t5 a_510_n1078# VDD.t159 pfet_03v3 ad=0.26p pd=1.52u as=0.44p ps=2.88u w=1u l=0.56u
X123 VDD a_2201_n2780.t2 a_2201_n2780.t3 VDD.t93 pfet_03v3 ad=0.26p pd=1.52u as=0.26p ps=1.52u w=1u l=0.56u
X124 Delay_Cell_mag_2.IN Delay_Cell_mag_2.INB VDD.t37 VDD.t36 pfet_03v3 ad=0.26p pd=1.52u as=0.26p ps=1.52u w=1u l=0.56u
X125 a_6953_2661# Delay_Cell_mag_1.IN Delay_Cell_mag_1.IN VDD.t44 pfet_03v3 ad=0.26p pd=1.52u as=0.26p ps=1.52u w=1u l=0.56u
X126 Delay_Cell_mag_1.INB Delay_Cell_mag_1.IN VDD.t178 VDD.t41 pfet_03v3 ad=0.26p pd=1.52u as=0.44p ps=2.88u w=1u l=0.56u
X127 VDD Delay_Cell_mag_0.OUT Delay_Cell_mag_0.OUTB.t13 VDD.t125 pfet_03v3 ad=0.26p pd=1.52u as=0.26p ps=1.52u w=1u l=0.56u
X128 OUTB GF_INV16_1.IN VDD.t167 VDD.t166 pfet_03v3 ad=0.728p pd=3.32u as=0.728p ps=3.32u w=2.8u l=0.35u
X129 VDD Delay_Cell_mag_2.INB Delay_Cell_mag_2.IN.t1 VDD.t33 pfet_03v3 ad=0.26p pd=1.52u as=0.26p ps=1.52u w=1u l=0.56u
X130 a_6953_n1078# a_8644_n2780.t15 VDD.t144 VDD.t80 pfet_03v3 ad=0.44p pd=2.88u as=0.26p ps=1.52u w=1u l=0.56u
X131 Delay_Cell_mag_1.IN Delay_Cell_mag_0.OUT a_7148_419# VSS.t39 nfet_03v3 ad=0.26p pd=1.52u as=0.26p ps=1.52u w=1u l=0.56u
X132 VSS GF_INV1_0.OUT GF_INV16_2.IN VSS.t82 nfet_03v3 ad=0.308p pd=2.28u as=0.182p ps=1.22u w=0.7u l=0.35u
X133 VSS EN.t3 a_705_n3320# VSS.t5 nfet_03v3 ad=0.26p pd=1.52u as=0.26p ps=1.52u w=1u l=0.56u
X134 OUT GF_INV16_2.IN VDD.t67 VDD.t66 pfet_03v3 ad=0.728p pd=3.32u as=1.23p ps=6.48u w=2.8u l=0.35u
X135 VDD Delay_Cell_mag_2.INB Delay_Cell_mag_2.IN.t0 VDD.t30 pfet_03v3 ad=0.26p pd=1.52u as=0.26p ps=1.52u w=1u l=0.56u
X136 Delay_Cell_mag_1.IN Delay_Cell_mag_1.IN a_6953_2661# VDD.t109 pfet_03v3 ad=0.26p pd=1.52u as=0.26p ps=1.52u w=1u l=0.56u
X137 a_7148_419# EN.t4 VSS.t76 VSS.t32 nfet_03v3 ad=0.26p pd=1.52u as=0.44p ps=2.88u w=1u l=0.56u
X138 VSS EN.t5 a_705_418# VSS.t13 nfet_03v3 ad=0.26p pd=1.52u as=0.26p ps=1.52u w=1u l=0.56u
X139 a_7148_419# a_7148_419# a_7148_419# VSS.t33 nfet_03v3 ad=0.44p pd=2.88u as=0 ps=0 w=1u l=0.56u
X140 VDD Delay_Cell_mag_2.OUTB.t26 Delay_Cell_mag_2.OUT.t0 VDD.t18 pfet_03v3 ad=0.26p pd=1.52u as=0.26p ps=1.52u w=1u l=0.56u
X141 Delay_Cell_mag_2.OUTB Delay_Cell_mag_2.INB a_705_n3320# VSS.t5 nfet_03v3 ad=0.26p pd=1.52u as=0.26p ps=1.52u w=1u l=0.56u
X142 Delay_Cell_mag_1.IN Delay_Cell_mag_1.IN a_6953_2661# VDD.t111 pfet_03v3 ad=0.26p pd=1.52u as=0.26p ps=1.52u w=1u l=0.56u
X143 Delay_Cell_mag_2.INB Delay_Cell_mag_1.IN a_705_418# VSS.t105 nfet_03v3 ad=0.26p pd=1.52u as=0.26p ps=1.52u w=1u l=0.56u
X144 Delay_Cell_mag_2.OUT Delay_Cell_mag_2.OUTB.t27 VDD.t160 VDD.t159 pfet_03v3 ad=0.26p pd=1.52u as=0.44p ps=2.88u w=1u l=0.56u
X145 Delay_Cell_mag_0.OUT Delay_Cell_mag_0.IN a_7148_n3320# VSS.t15 nfet_03v3 ad=0.26p pd=1.52u as=0.26p ps=1.52u w=1u l=0.56u
X146 Delay_Cell_mag_2.IN Delay_Cell_mag_2.IN.t12 a_510_2660# VDD.t36 pfet_03v3 ad=0.26p pd=1.52u as=0.26p ps=1.52u w=1u l=0.56u
X147 Delay_Cell_mag_1.INB Delay_Cell_mag_1.INB.t0 a_6953_2661# VDD.t41 pfet_03v3 ad=0.26p pd=1.52u as=0.44p ps=2.88u w=1u l=0.56u
X148 VSS Delay_Cell_mag_2.OUTB.t28 Delay_Cell_mag_0.IN VSS.t115 nfet_03v3 ad=0.44p pd=2.88u as=0.26p ps=1.52u w=1u l=0.35u
X149 VSS Delay_Cell_mag_2.OUT.t26 Delay_Cell_mag_0.INB VSS.t57 nfet_03v3 ad=0.44p pd=2.88u as=0.26p ps=1.52u w=1u l=0.35u
X150 VSS GF_INV16_2.IN OUT.t5 VSS.t24 nfet_03v3 ad=0.364p pd=1.92u as=0.364p ps=1.92u w=1.4u l=0.35u
X151 a_7148_n3320# EN.t6 VSS.t79 VSS.t14 nfet_03v3 ad=0.26p pd=1.52u as=0.44p ps=2.88u w=1u l=0.56u
X152 a_510_2660# Delay_Cell_mag_2.IN.t10 Delay_Cell_mag_2.IN.t11 VDD.t33 pfet_03v3 ad=0.26p pd=1.52u as=0.26p ps=1.52u w=1u l=0.56u
X153 a_705_n3320# Delay_Cell_mag_2.INB Delay_Cell_mag_2.OUTB.t0 VSS.t4 nfet_03v3 ad=0.26p pd=1.52u as=0.26p ps=1.52u w=1u l=0.56u
X154 VSS GF_INV16_2.IN OUT.t4 VSS.t21 nfet_03v3 ad=0.616p pd=3.68u as=0.364p ps=1.92u w=1.4u l=0.35u
X155 Delay_Cell_mag_2.INB Delay_Cell_mag_2.IN.t24 VDD.t58 VDD.t29 pfet_03v3 ad=0.26p pd=1.52u as=0.44p ps=2.88u w=1u l=0.56u
X156 VSS VCONT.t14 a_8644_n2780.t11 VSS.t18 nfet_03v3 ad=0.44p pd=2.88u as=0.26p ps=1.52u w=1u l=0.56u
X157 VDD a_8644_n2780.t3 a_8644_n2780.t4 VDD.t80 pfet_03v3 ad=0.44p pd=2.88u as=0.26p ps=1.52u w=1u l=0.56u
X158 a_7148_n3320# Delay_Cell_mag_0.IN Delay_Cell_mag_0.OUT VSS.t14 nfet_03v3 ad=0.26p pd=1.52u as=0.26p ps=1.52u w=1u l=0.56u
X159 a_510_2660# Delay_Cell_mag_2.IN.t8 Delay_Cell_mag_2.IN.t9 VDD.t30 pfet_03v3 ad=0.26p pd=1.52u as=0.26p ps=1.52u w=1u l=0.56u
X160 a_510_n1078# a_2201_n2780.t17 VDD.t92 VDD.t89 pfet_03v3 ad=0.44p pd=2.88u as=0.26p ps=1.52u w=1u l=0.56u
X161 Delay_Cell_mag_2.OUT Delay_Cell_mag_2.OUT.t3 a_510_n1078# VDD.t21 pfet_03v3 ad=0.26p pd=1.52u as=0.26p ps=1.52u w=1u l=0.56u
X162 a_7148_n3320# a_7148_n3320# a_7148_n3320# VSS.t18 nfet_03v3 ad=0.26p pd=1.52u as=0 ps=0 w=1u l=0.56u
X163 a_6953_n1078# Delay_Cell_mag_0.OUTB.t4 Delay_Cell_mag_0.OUTB.t5 VDD.t121 pfet_03v3 ad=0.26p pd=1.52u as=0.26p ps=1.52u w=1u l=0.56u
X164 GF_INV16_2.IN GF_INV1_0.OUT VSS.t81 VSS.t80 nfet_03v3 ad=0.182p pd=1.22u as=0.308p ps=2.28u w=0.7u l=0.35u
X165 VDD a_8644_959.t0 a_8644_959.t1 VDD.t155 pfet_03v3 ad=0.44p pd=2.88u as=0.26p ps=1.52u w=1u l=0.56u
X166 VSS VCONT.t15 a_8644_n2780.t2 VSS.t0 nfet_03v3 ad=0.26p pd=1.52u as=0.26p ps=1.52u w=1u l=0.56u
X167 a_7148_419# Delay_Cell_mag_0.OUT Delay_Cell_mag_1.IN VSS.t38 nfet_03v3 ad=0.26p pd=1.52u as=0.26p ps=1.52u w=1u l=0.56u
X168 Delay_Cell_mag_2.IN Delay_Cell_mag_1.INB.t26 a_705_418# VSS.t37 nfet_03v3 ad=0.26p pd=1.52u as=0.26p ps=1.52u w=1u l=0.56u
X169 Delay_Cell_mag_0.OUTB Delay_Cell_mag_0.INB a_7148_n3320# VSS.t0 nfet_03v3 ad=0.26p pd=1.52u as=0.26p ps=1.52u w=1u l=0.56u
X170 a_705_n3320# Delay_Cell_mag_2.IN.t25 Delay_Cell_mag_2.OUT.t12 VSS.t111 nfet_03v3 ad=0.26p pd=1.52u as=0.26p ps=1.52u w=1u l=0.56u
X171 Delay_Cell_mag_1.INB Delay_Cell_mag_0.OUTB.t25 a_7148_419# VSS.t125 nfet_03v3 ad=0.26p pd=1.52u as=0.26p ps=1.52u w=1u l=0.56u
X172 VDD a_2201_958.t2 a_2201_958.t3 VDD.t161 pfet_03v3 ad=0.44p pd=2.88u as=0.26p ps=1.52u w=1u l=0.56u
X173 VDD Delay_Cell_mag_1.INB.t27 Delay_Cell_mag_1.IN VDD.t113 pfet_03v3 ad=0.26p pd=1.52u as=0.26p ps=1.52u w=1u l=0.56u
X174 VDD a_8644_n2780.t17 a_6953_n1078# VDD.t148 pfet_03v3 ad=0.26p pd=1.52u as=0.26p ps=1.52u w=1u l=0.56u
X175 a_705_418# Delay_Cell_mag_1.IN Delay_Cell_mag_2.INB VSS.t104 nfet_03v3 ad=0.26p pd=1.52u as=0.26p ps=1.52u w=1u l=0.56u
X176 Delay_Cell_mag_2.INB Delay_Cell_mag_2.INB a_510_2660# VDD.t29 pfet_03v3 ad=0.26p pd=1.52u as=0.44p ps=2.88u w=1u l=0.56u
X177 VSS EN.t7 a_7148_419# VSS.t39 nfet_03v3 ad=0.26p pd=1.52u as=0.26p ps=1.52u w=1u l=0.56u
X178 a_510_n1078# Delay_Cell_mag_2.OUTB.t8 Delay_Cell_mag_2.OUTB.t9 VDD.t47 pfet_03v3 ad=0.26p pd=1.52u as=0.26p ps=1.52u w=1u l=0.56u
X179 VDD Delay_Cell_mag_1.IN Delay_Cell_mag_1.INB.t10 VDD.t120 pfet_03v3 ad=0.26p pd=1.52u as=0.26p ps=1.52u w=1u l=0.56u
X180 a_6953_n1078# Delay_Cell_mag_0.OUT Delay_Cell_mag_0.OUT VDD.t124 pfet_03v3 ad=0.26p pd=1.52u as=0.26p ps=1.52u w=1u l=0.56u
X181 VDD a_2201_n2780.t0 a_2201_n2780.t1 VDD.t89 pfet_03v3 ad=0.44p pd=2.88u as=0.26p ps=1.52u w=1u l=0.56u
X182 Delay_Cell_mag_2.OUT Delay_Cell_mag_2.OUTB.t29 VDD.t22 VDD.t21 pfet_03v3 ad=0.26p pd=1.52u as=0.26p ps=1.52u w=1u l=0.56u
X183 Delay_Cell_mag_0.INB Delay_Cell_mag_2.OUT.t28 VDD.t4 VDD.t3 pfet_03v3 ad=0.13p pd=1.02u as=0.13p ps=1.02u w=0.5u l=0.35u
X184 Delay_Cell_mag_0.INB Delay_Cell_mag_2.OUT.t29 VDD.t165 VDD.t164 pfet_03v3 ad=0.13p pd=1.02u as=0.22p ps=1.88u w=0.5u l=0.35u
X185 VDD Delay_Cell_mag_0.OUT Delay_Cell_mag_0.OUTB.t12 VDD.t121 pfet_03v3 ad=0.26p pd=1.52u as=0.26p ps=1.52u w=1u l=0.56u
X186 a_6953_2661# a_8644_959.t17 VDD.t156 VDD.t155 pfet_03v3 ad=0.44p pd=2.88u as=0.26p ps=1.52u w=1u l=0.56u
X187 OUT GF_INV16_2.IN VDD.t65 VDD.t64 pfet_03v3 ad=0.728p pd=3.32u as=0.728p ps=3.32u w=2.8u l=0.35u
R0 a_2201_n2780.t0 a_2201_n2780.n4 22.8782
R1 a_2201_n2780.n5 a_2201_n2780.t0 22.4219
R2 a_2201_n2780.n2 a_2201_n2780.t12 22.2916
R3 a_2201_n2780.n4 a_2201_n2780.n3 14.0791
R4 a_2201_n2780.n3 a_2201_n2780.n2 14.0791
R5 a_2201_n2780.n6 a_2201_n2780.n5 14.0791
R6 a_2201_n2780.n1 a_2201_n2780.t6 11.3416
R7 a_2201_n2780.n5 a_2201_n2780.t4 8.34336
R8 a_2201_n2780.n6 a_2201_n2780.t2 8.34336
R9 a_2201_n2780.n4 a_2201_n2780.t17 8.213
R10 a_2201_n2780.n3 a_2201_n2780.t14 8.213
R11 a_2201_n2780.n2 a_2201_n2780.t16 8.213
R12 a_2201_n2780.n0 a_2201_n2780.n6 8.17193
R13 a_2201_n2780.n0 a_2201_n2780.n1 4.0005
R14 a_2201_n2780.n0 a_2201_n2780.n8 3.63045
R15 a_2201_n2780.n17 a_2201_n2780.n0 2.89398
R16 a_2201_n2780.n13 a_2201_n2780.n10 2.26392
R17 a_2201_n2780.n8 a_2201_n2780.t1 1.8205
R18 a_2201_n2780.n8 a_2201_n2780.n7 1.8205
R19 a_2201_n2780.t3 a_2201_n2780.n17 1.8205
R20 a_2201_n2780.n17 a_2201_n2780.n16 1.8205
R21 a_2201_n2780.n10 a_2201_n2780.t10 1.6385
R22 a_2201_n2780.n10 a_2201_n2780.n9 1.6385
R23 a_2201_n2780.n12 a_2201_n2780.t8 1.6385
R24 a_2201_n2780.n12 a_2201_n2780.n11 1.6385
R25 a_2201_n2780.n1 a_2201_n2780.n15 1.62996
R26 a_2201_n2780.n13 a_2201_n2780.n12 1.4936
R27 a_2201_n2780.n0 a_2201_n2780.n14 1.37554
R28 a_2201_n2780.n14 a_2201_n2780.n13 1.18673
R29 VDD.n260 VDD.t62 335.682
R30 VDD.n208 VDD.t182 335.682
R31 VDD.n52 VDD.t26 179.427
R32 VDD.n481 VDD.t50 179.427
R33 VDD.n63 VDD.t5 112.441
R34 VDD.n487 VDD.t74 112.441
R35 VDD.n65 VDD.t85 52.6321
R36 VDD.n485 VDD.t3 52.6321
R37 VDD.n190 VDD.t64 46.3367
R38 VDD.n243 VDD.t166 46.3367
R39 VDD.n324 VDD.t155 42.1692
R40 VDD.n434 VDD.t80 42.1692
R41 VDD.n502 VDD.t89 42.1692
R42 VDD.n686 VDD.t161 42.1692
R43 VDD.n265 VDD.t150 39.8225
R44 VDD.n213 VDD.t142 39.8225
R45 VDD.n321 VDD.t116 35.5427
R46 VDD.n437 VDD.t148 35.5427
R47 VDD.n505 VDD.t97 35.5427
R48 VDD.n683 VDD.t105 35.5427
R49 VDD.n193 VDD.t68 32.3281
R50 VDD.n246 VDD.t170 32.3281
R51 VDD.n291 VDD.t41 30.7234
R52 VDD.n467 VDD.t133 30.7234
R53 VDD.n535 VDD.t159 30.7234
R54 VDD.n653 VDD.t29 30.7234
R55 VDD.n318 VDD.t134 28.9162
R56 VDD.n440 VDD.t11 28.9162
R57 VDD.n508 VDD.t93 28.9162
R58 VDD.n680 VDD.t83 28.9162
R59 VDD.n294 VDD.t42 24.0969
R60 VDD.n464 VDD.t124 24.0969
R61 VDD.n532 VDD.t59 24.0969
R62 VDD.n656 VDD.t0 24.0969
R63 VDD.n56 VDD.t13 23.9239
R64 VDD.n493 VDD.t164 23.9239
R65 VDD.n315 VDD.t145 22.2897
R66 VDD.n443 VDD.t23 22.2897
R67 VDD.n511 VDD.t101 22.2897
R68 VDD.n677 VDD.t8 22.2897
R69 VDD.n297 VDD.t43 17.4704
R70 VDD.n461 VDD.t128 17.4704
R71 VDD.n529 VDD.t21 17.4704
R72 VDD.n659 VDD.t15 17.4704
R73 VDD.n177 VDD.t66 16.8707
R74 VDD.n230 VDD.t168 16.8707
R75 VDD.n183 VDD.t71 16.1643
R76 VDD.n236 VDD.t173 16.1643
R77 VDD.n312 VDD.t44 15.6632
R78 VDD.n446 VDD.t121 15.6632
R79 VDD.n514 VDD.t55 15.6632
R80 VDD.n674 VDD.t33 15.6632
R81 VDD.n300 VDD.t120 10.8439
R82 VDD.n458 VDD.t77 10.8439
R83 VDD.n526 VDD.t18 10.8439
R84 VDD.n662 VDD.t38 10.8439
R85 VDD.n265 VDD.n264 9.93878
R86 VDD.n213 VDD.n212 9.93878
R87 VDD.n271 VDD.t152 9.6712
R88 VDD.n219 VDD.t139 9.6712
R89 VDD.n309 VDD.t109 9.03664
R90 VDD.n449 VDD.t129 9.03664
R91 VDD.n517 VDD.t17 9.03664
R92 VDD.n671 VDD.t36 9.03664
R93 VDD.n66 VDD.n64 8.70445
R94 VDD.n488 VDD.n486 8.70445
R95 VDD.n258 VDD.t63 8.26313
R96 VDD.n206 VDD.t183 8.26313
R97 VDD.n184 VDD.n182 8.15819
R98 VDD.n237 VDD.n235 8.15819
R99 VDD.n649 VDD.n590 7.10822
R100 VDD.n483 VDD.n480 6.66125
R101 VDD.n58 VDD.t14 6.58259
R102 VDD.n69 VDD.n51 6.49073
R103 VDD.n496 VDD.t165 6.48786
R104 VDD.n198 VDD.n197 6.3005
R105 VDD.n197 VDD.n196 6.3005
R106 VDD.n477 VDD.n69 6.07717
R107 VDD.n202 VDD.n201 5.38954
R108 VDD.n332 VDD.n331 4.85019
R109 VDD.n285 VDD.n284 4.5005
R110 VDD.n330 VDD.n151 4.5005
R111 VDD.n74 VDD.n73 4.5005
R112 VDD.n498 VDD.n497 4.46272
R113 VDD.n264 VDD.t151 4.3192
R114 VDD.n275 VDD.n263 4.3192
R115 VDD.n212 VDD.t143 4.3192
R116 VDD.n223 VDD.n211 4.3192
R117 VDD.n262 VDD.n261 4.29708
R118 VDD.n210 VDD.n209 4.29333
R119 VDD.n303 VDD.t111 4.21737
R120 VDD.n455 VDD.t131 4.21737
R121 VDD.n523 VDD.t87 4.21737
R122 VDD.n665 VDD.t39 4.21737
R123 VDD.n252 VDD.n251 3.94094
R124 VDD.n176 VDD.t67 3.92746
R125 VDD.n203 VDD.n173 3.92746
R126 VDD.n229 VDD.t169 3.92746
R127 VDD.n96 VDD.n95 3.9192
R128 VDD.n406 VDD.n405 3.9192
R129 VDD.n25 VDD.n24 3.9192
R130 VDD.n724 VDD.n723 3.9192
R131 VDD.n77 VDD.t178 3.80738
R132 VDD.n387 VDD.t187 3.80738
R133 VDD.n6 VDD.t160 3.80738
R134 VDD.n705 VDD.t58 3.80738
R135 VDD.n55 VDD.t86 3.6405
R136 VDD.n55 VDD.n54 3.6405
R137 VDD.n479 VDD.t4 3.6405
R138 VDD.n479 VDD.n478 3.6405
R139 VDD.n186 VDD.n175 3.27746
R140 VDD.n239 VDD.n228 3.27746
R141 VDD.n259 VDD.n258 3.19668
R142 VDD.n207 VDD.n206 3.19668
R143 VDD.n68 VDD.n53 3.1505
R144 VDD.n53 VDD.n52 3.1505
R145 VDD.n58 VDD.n57 3.1505
R146 VDD.n57 VDD.n56 3.1505
R147 VDD.n67 VDD.n66 3.1505
R148 VDD.n66 VDD.n65 3.1505
R149 VDD.n64 VDD.n62 3.1505
R150 VDD.n64 VDD.n63 3.1505
R151 VDD.n61 VDD.n60 3.1505
R152 VDD.n60 VDD.n59 3.1505
R153 VDD.n486 VDD.n484 3.1505
R154 VDD.n486 VDD.n485 3.1505
R155 VDD.n495 VDD.n494 3.1505
R156 VDD.n494 VDD.n493 3.1505
R157 VDD.n492 VDD.n491 3.1505
R158 VDD.n491 VDD.n490 3.1505
R159 VDD.n489 VDD.n488 3.1505
R160 VDD.n488 VDD.n487 3.1505
R161 VDD.n483 VDD.n482 3.1505
R162 VDD.n482 VDD.n481 3.1505
R163 VDD.n257 VDD.n256 3.1505
R164 VDD.n260 VDD.n259 3.1505
R165 VDD.n270 VDD.n269 3.1505
R166 VDD.n269 VDD.n268 3.1505
R167 VDD.n267 VDD.n266 3.1505
R168 VDD.n273 VDD.n272 3.1505
R169 VDD.n195 VDD.n194 3.1505
R170 VDD.n194 VDD.n193 3.1505
R171 VDD.n192 VDD.n191 3.1505
R172 VDD.n191 VDD.n190 3.1505
R173 VDD.n189 VDD.n188 3.1505
R174 VDD.n188 VDD.n187 3.1505
R175 VDD.n185 VDD.n184 3.1505
R176 VDD.n184 VDD.n183 3.1505
R177 VDD.n182 VDD.n180 3.1505
R178 VDD.n182 VDD.n181 3.1505
R179 VDD.n179 VDD.n178 3.1505
R180 VDD.n248 VDD.n247 3.1505
R181 VDD.n247 VDD.n246 3.1505
R182 VDD.n245 VDD.n244 3.1505
R183 VDD.n244 VDD.n243 3.1505
R184 VDD.n242 VDD.n241 3.1505
R185 VDD.n241 VDD.n240 3.1505
R186 VDD.n238 VDD.n237 3.1505
R187 VDD.n237 VDD.n236 3.1505
R188 VDD.n235 VDD.n233 3.1505
R189 VDD.n235 VDD.n234 3.1505
R190 VDD.n232 VDD.n231 3.1505
R191 VDD.n218 VDD.n217 3.1505
R192 VDD.n217 VDD.n216 3.1505
R193 VDD.n215 VDD.n214 3.1505
R194 VDD.n221 VDD.n220 3.1505
R195 VDD.n208 VDD.n207 3.1505
R196 VDD.n205 VDD.n204 3.1505
R197 VDD.n327 VDD.n153 3.1505
R198 VDD.n153 VDD.n152 3.1505
R199 VDD.n326 VDD.n325 3.1505
R200 VDD.n325 VDD.n324 3.1505
R201 VDD.n323 VDD.n322 3.1505
R202 VDD.n322 VDD.n321 3.1505
R203 VDD.n320 VDD.n319 3.1505
R204 VDD.n319 VDD.n318 3.1505
R205 VDD.n317 VDD.n316 3.1505
R206 VDD.n316 VDD.n315 3.1505
R207 VDD.n314 VDD.n313 3.1505
R208 VDD.n313 VDD.n312 3.1505
R209 VDD.n311 VDD.n310 3.1505
R210 VDD.n310 VDD.n309 3.1505
R211 VDD.n308 VDD.n307 3.1505
R212 VDD.n307 VDD.n306 3.1505
R213 VDD.n305 VDD.n304 3.1505
R214 VDD.n304 VDD.n303 3.1505
R215 VDD.n302 VDD.n301 3.1505
R216 VDD.n301 VDD.n300 3.1505
R217 VDD.n299 VDD.n298 3.1505
R218 VDD.n298 VDD.n297 3.1505
R219 VDD.n296 VDD.n295 3.1505
R220 VDD.n295 VDD.n294 3.1505
R221 VDD.n293 VDD.n292 3.1505
R222 VDD.n292 VDD.n291 3.1505
R223 VDD.n290 VDD.n289 3.1505
R224 VDD.n289 VDD.n288 3.1505
R225 VDD.n155 VDD.n154 3.1505
R226 VDD.n158 VDD.n157 3.1505
R227 VDD.n160 VDD.n159 3.1505
R228 VDD.n163 VDD.n162 3.1505
R229 VDD.n165 VDD.n164 3.1505
R230 VDD.n168 VDD.n167 3.1505
R231 VDD.n172 VDD.n171 3.1505
R232 VDD.n125 VDD.n124 3.1505
R233 VDD.n123 VDD.n122 3.1505
R234 VDD.n121 VDD.n120 3.1505
R235 VDD.n119 VDD.n118 3.1505
R236 VDD.n117 VDD.n116 3.1505
R237 VDD.n115 VDD.n114 3.1505
R238 VDD.n113 VDD.n112 3.1505
R239 VDD.n111 VDD.n110 3.1505
R240 VDD.n109 VDD.n108 3.1505
R241 VDD.n107 VDD.n106 3.1505
R242 VDD.n105 VDD.n104 3.1505
R243 VDD.n103 VDD.n102 3.1505
R244 VDD.n101 VDD.n100 3.1505
R245 VDD.n99 VDD.n98 3.1505