* NGSPICE file created from filter_res_magic_flat.ext - technology: gf180mcuC

.subckt pex_filter_res_magic VDD VOUT_N VOUT_OPAMP_N VOUT_OPAMP_P VOUT_P VIN_N VIN_P
X0 a_947_715.t0 a_1507_153.t0 VDD.t18 ppolyf_u r_width=1u r_length=2.3u
X1 VDD.t28 VDD.t29 VDD.t23 ppolyf_u r_width=1u r_length=2.3u
X2 VOUT_OPAMP_N.t0 VOUT_OPAMP_N.t1 VDD.t9 ppolyf_u r_width=1u r_length=2.3u
X3 VDD.t19 VDD.t20 VDD.t2 ppolyf_u r_width=1u r_length=2.3u
X4 VDD.t21 VDD.t22 VDD.t2 ppolyf_u r_width=1u r_length=2.3u
X5 VOUT_N.t1 VOUT_OPAMP_P.t6 cap_mim_2f0_m4m5_noshield c_width=15.2u c_length=16u
X6 a_387_n202.t2 R3_R7.t7 cap_mim_2f0_m4m5_noshield c_width=16.2u c_length=15u
X7 VDD.t26 VDD.t27 VDD.t23 ppolyf_u r_width=1u r_length=2.3u
X8 a_667_n202.t1 a_387_n1119.t2 VDD.t7 ppolyf_u r_width=1u r_length=2.3u
X9 VDD.t24 VDD.t25 VDD.t23 ppolyf_u r_width=1u r_length=2.3u
X10 a_387_n3450.t0 R3_R7.t1 VDD.t5 ppolyf_u r_width=1u r_length=2.3u
X11 a_387_n202.t1 a_667_153.t1 VDD.t7 ppolyf_u r_width=1u r_length=2.3u
X12 a_667_n1119.t1 a_387_n1681.t1 VDD.t7 ppolyf_u r_width=1u r_length=2.3u
X13 VDD.t15 VDD.t16 VDD.t2 ppolyf_u r_width=1u r_length=2.3u
X14 R7_R8_R10_C.t3 a_387_n1119.t3 cap_mim_2f0_m4m5_noshield c_width=16.2u c_length=15u
X15 VDD.t30 VDD.t31 VDD.t23 ppolyf_u r_width=1u r_length=2.3u
X16 VIN_N.t0 a_1507_n4012.t1 VDD.t9 ppolyf_u r_width=1u r_length=2.3u
X17 a_387_n4367.t1 a_947_n4929.t0 VDD.t1 ppolyf_u r_width=1u r_length=2.3u
X18 a_387_n202.t3 R3_R7.t6 cap_mim_2f0_m4m5_noshield c_width=16.2u c_length=15u
X19 VOUT_OPAMP_P.t0 VOUT_OPAMP_P.t1 VDD.t17 ppolyf_u r_width=1u r_length=2.3u
X20 a_387_n2533.t1 a_667_n3095.t1 VDD.t7 ppolyf_u r_width=1u r_length=2.3u
X21 a_667_n4367.t1 a_1227_n4929.t1 VDD.t8 ppolyf_u r_width=1u r_length=2.3u
X22 a_387_n202.t0 a_387_n764.t1 VDD.t5 ppolyf_u r_width=1u r_length=2.3u
X23 VDD.t34 VDD.t35 VDD.t23 ppolyf_u r_width=1u r_length=2.3u
X24 VOUT_OPAMP_N.t2 VOUT_OPAMP_N.t3 VDD.t17 ppolyf_u r_width=1u r_length=2.3u
X25 a_1787_n4367.t0 a_1227_n4929.t0 VDD.t0 ppolyf_u r_width=1u r_length=2.3u
X26 VOUT_P.t1 VOUT_OPAMP_N.t4 cap_mim_2f0_m4m5_noshield c_width=15.2u c_length=16u
X27 R7_R8_R10_C.t0 a_667_n4012.t0 VDD.t7 ppolyf_u r_width=1u r_length=2.3u
X28 a_387_n202.t3 R3_R7.t5 cap_mim_2f0_m4m5_noshield c_width=16.2u c_length=15u
X29 a_667_n1119.t0 a_947_n1681.t0 VDD.t1 ppolyf_u r_width=1u r_length=2.3u
X30 VOUT_N.t2 VOUT_OPAMP_P.t5 cap_mim_2f0_m4m5_noshield c_width=15.2u c_length=16u
X31 a_1227_n1119.t0 a_947_n1681.t1 VDD.t8 ppolyf_u r_width=1u r_length=2.3u
X32 a_2347_n3450.t1 a_2627_n4367.t0 VDD.t17 ppolyf_u r_width=1u r_length=2.3u
X33 a_387_n202.t3 R3_R7.t4 cap_mim_2f0_m4m5_noshield c_width=16.2u c_length=15u
X34 VOUT_P.t2 VOUT_OPAMP_N.t5 cap_mim_2f0_m4m5_noshield c_width=15.2u c_length=16u
X35 a_2347_715.t0 a_1787_153.t0 VDD.t6 ppolyf_u r_width=1u r_length=2.3u
X36 a_1507_n4367.t1 a_947_n4929.t1 VDD.t18 ppolyf_u r_width=1u r_length=2.3u
X37 a_1507_n4367.t0 a_2067_n4929.t1 VDD.t12 ppolyf_u r_width=1u r_length=2.3u
X38 a_1227_715.t1 a_1787_153.t1 VDD.t0 ppolyf_u r_width=1u r_length=2.3u
X39 a_947_n2533.t0 a_667_n3095.t0 VDD.t1 ppolyf_u r_width=1u r_length=2.3u
X40 a_1227_715.t0 a_667_153.t0 VDD.t8 ppolyf_u r_width=1u r_length=2.3u
X41 a_1787_n1119.t1 a_1507_n1681.t0 VDD.t0 ppolyf_u r_width=1u r_length=2.3u
X42 a_947_n2533.t1 a_1227_n3095.t1 VDD.t8 ppolyf_u r_width=1u r_length=2.3u
X43 a_387_n202.t3 R3_R7.t3 cap_mim_2f0_m4m5_noshield c_width=16.2u c_length=15u
X44 VOUT_N.t0 a_387_153.t0 VDD.t5 ppolyf_u r_width=1u r_length=2.3u
X45 a_947_n3450.t0 R7_R8_R10_C.t2 VDD.t1 ppolyf_u r_width=1u r_length=2.3u
X46 a_1787_n1119.t0 a_2067_n1681.t0 VDD.t12 ppolyf_u r_width=1u r_length=2.3u
X47 a_1507_n2533.t0 a_1787_n3095.t0 VDD.t0 ppolyf_u r_width=1u r_length=2.3u
X48 a_1227_n3450.t1 a_667_n4012.t1 VDD.t8 ppolyf_u r_width=1u r_length=2.3u
X49 a_1227_n1119.t1 a_1507_n1681.t1 VDD.t18 ppolyf_u r_width=1u r_length=2.3u
X50 a_1787_n4367.t1 a_2347_n4929.t1 VDD.t6 ppolyf_u r_width=1u r_length=2.3u
X51 a_2347_715.t1 a_2067_n202.t1 VDD.t17 ppolyf_u r_width=1u r_length=2.3u
X52 a_2627_153.t0 a_2347_n764.t1 VDD.t17 ppolyf_u r_width=1u r_length=2.3u
X53 a_2067_n2533.t0 a_1787_n3095.t1 VDD.t12 ppolyf_u r_width=1u r_length=2.3u
X54 a_1227_n3450.t0 a_1787_n4012.t0 VDD.t0 ppolyf_u r_width=1u r_length=2.3u
X55 a_1507_n2533.t1 a_1227_n3095.t0 VDD.t18 ppolyf_u r_width=1u r_length=2.3u
X56 VDD.t13 VDD.t14 VDD.t2 ppolyf_u r_width=1u r_length=2.3u
X57 a_1507_n202.t1 a_387_n764.t0 VDD.t18 ppolyf_u r_width=1u r_length=2.3u
X58 R7_R8_R10_C.t4 a_387_n1119.t4 cap_mim_2f0_m4m5_noshield c_width=16.2u c_length=15u
X59 a_947_715.t1 a_387_153.t1 VDD.t1 ppolyf_u r_width=1u r_length=2.3u
X60 a_947_n3450.t1 a_2067_n4012.t1 VDD.t12 ppolyf_u r_width=1u r_length=2.3u
X61 a_387_n4367.t0 VOUT_P.t0 VDD.t5 ppolyf_u r_width=1u r_length=2.3u
X62 a_2067_715.t0 a_1507_153.t1 VDD.t12 ppolyf_u r_width=1u r_length=2.3u
X63 a_1507_n202.t0 VIN_P.t0 VDD.t9 ppolyf_u r_width=1u r_length=2.3u
X64 VOUT_OPAMP_P.t4 a_2067_n1681.t1 VDD.t6 ppolyf_u r_width=1u r_length=2.3u
X65 a_387_n3450.t1 a_1507_n4012.t0 VDD.t18 ppolyf_u r_width=1u r_length=2.3u
X66 VDD.t3 VDD.t4 VDD.t2 ppolyf_u r_width=1u r_length=2.3u
X67 a_2627_n4367.t1 a_2067_n4929.t0 VDD.t9 ppolyf_u r_width=1u r_length=2.3u
X68 a_667_n202.t0 a_1227_n764.t0 VDD.t8 ppolyf_u r_width=1u r_length=2.3u
X69 a_1787_n202.t1 a_1227_n764.t1 VDD.t0 ppolyf_u r_width=1u r_length=2.3u
X70 a_2067_n2533.t1 VOUT_OPAMP_N.t6 VDD.t6 ppolyf_u r_width=1u r_length=2.3u
X71 VDD.t32 VDD.t33 VDD.t23 ppolyf_u r_width=1u r_length=2.3u
X72 a_1787_n202.t0 a_2347_n764.t0 VDD.t6 ppolyf_u r_width=1u r_length=2.3u
X73 a_387_n1119.t0 a_387_n1681.t0 VDD.t5 ppolyf_u r_width=1u r_length=2.3u
X74 VDD.t10 VDD.t11 VDD.t2 ppolyf_u r_width=1u r_length=2.3u
X75 a_2347_n3450.t0 a_1787_n4012.t1 VDD.t6 ppolyf_u r_width=1u r_length=2.3u
X76 a_667_n4367.t0 R3_R7.t0 VDD.t7 ppolyf_u r_width=1u r_length=2.3u
X77 a_387_n202.t2 R3_R7.t2 cap_mim_2f0_m4m5_noshield c_width=16.2u c_length=15u
X78 a_2067_715.t1 a_2627_153.t1 VDD.t9 ppolyf_u r_width=1u r_length=2.3u
X79 a_387_n1119.t1 a_947_n764.t0 VDD.t1 ppolyf_u r_width=1u r_length=2.3u
X80 VOUT_OPAMP_P.t2 VOUT_OPAMP_P.t3 VDD.t9 ppolyf_u r_width=1u r_length=2.3u
X81 a_387_n2533.t0 R7_R8_R10_C.t1 VDD.t5 ppolyf_u r_width=1u r_length=2.3u
X82 a_2067_n202.t0 a_947_n764.t1 VDD.t12 ppolyf_u r_width=1u r_length=2.3u
X83 a_2067_n4012.t0 a_2347_n4929.t0 VDD.t17 ppolyf_u r_width=1u r_length=2.3u
R0 a_947_715.t0 a_947_715.t1 13.5425
R1 a_1507_153.t0 a_1507_153.t1 13.5425
R2 VDD.n459 VDD.t24 6.87803
R3 VDD.n446 VDD.t25 6.87803
R4 VDD.n440 VDD.t34 6.87803
R5 VDD.n433 VDD.t35 6.87803
R6 VDD.n421 VDD.t33 6.87803
R7 VDD.n535 VDD.t30 6.87803
R8 VDD.n509 VDD.t26 6.87803
R9 VDD.n496 VDD.t27 6.87803
R10 VDD.n489 VDD.t28 6.87803
R11 VDD.n476 VDD.t29 6.87803
R12 VDD.n428 VDD.t32 6.87615
R13 VDD.n519 VDD.t31 6.87615
R14 VDD.n278 VDD.t2 6.83492
R15 VDD.n649 VDD.t8 6.83492
R16 VDD.n137 VDD.t11 6.82906
R17 VDD.n150 VDD.t10 6.82906
R18 VDD.n157 VDD.t22 6.82906
R19 VDD.n176 VDD.t21 6.82906
R20 VDD.n189 VDD.t14 6.82906
R21 VDD.n208 VDD.t13 6.82906
R22 VDD.n22 VDD.t4 6.82906
R23 VDD.n29 VDD.t3 6.82906
R24 VDD.n34 VDD.t16 6.82906
R25 VDD.n42 VDD.t15 6.82906
R26 VDD.n49 VDD.t20 6.82906
R27 VDD.n62 VDD.t19 6.82906
R28 VDD.n286 VDD.t17 6.21361
R29 VDD.n641 VDD.t1 6.21361
R30 VDD.n661 VDD.t18 4.66033
R31 VDD.n298 VDD.t9 4.03902
R32 VDD.n629 VDD.t7 4.03902
R33 VDD.n467 VDD.n466 3.1505
R34 VDD.n68 VDD.n67 3.1505
R35 VDD.n463 VDD.n462 3.1505
R36 VDD.n461 VDD.n460 3.1505
R37 VDD.n458 VDD.n457 3.1505
R38 VDD.n456 VDD.n455 3.1505
R39 VDD.n454 VDD.n453 3.1505
R40 VDD.n452 VDD.n451 3.1505
R41 VDD.n450 VDD.n449 3.1505
R42 VDD.n448 VDD.n447 3.1505
R43 VDD.n445 VDD.n444 3.1505
R44 VDD.n443 VDD.n442 3.1505
R45 VDD.n465 VDD.n464 3.1505
R46 VDD.n70 VDD.n69 3.1505
R47 VDD.n127 VDD.n125 3.1505
R48 VDD.n124 VDD.n122 3.1505
R49 VDD.n121 VDD.n119 3.1505
R50 VDD.n118 VDD.n116 3.1505
R51 VDD.n115 VDD.n113 3.1505
R52 VDD.n112 VDD.n110 3.1505
R53 VDD.n109 VDD.n107 3.1505
R54 VDD.n106 VDD.n104 3.1505
R55 VDD.n103 VDD.n101 3.1505
R56 VDD.n100 VDD.n98 3.1505
R57 VDD.n97 VDD.n95 3.1505
R58 VDD.n94 VDD.n92 3.1505
R59 VDD.n91 VDD.n89 3.1505
R60 VDD.n88 VDD.n86 3.1505
R61 VDD.n85 VDD.n83 3.1505
R62 VDD.n82 VDD.n80 3.1505
R63 VDD.n79 VDD.n77 3.1505
R64 VDD.n76 VDD.n74 3.1505
R65 VDD.n73 VDD.n71 3.1505
R66 VDD.n344 VDD.n342 3.1505
R67 VDD.n347 VDD.n345 3.1505
R68 VDD.n350 VDD.n348 3.1505
R69 VDD.n353 VDD.n351 3.1505
R70 VDD.n356 VDD.n354 3.1505
R71 VDD.n359 VDD.n357 3.1505
R72 VDD.n362 VDD.n360 3.1505
R73 VDD.n365 VDD.n363 3.1505
R74 VDD.n368 VDD.n366 3.1505
R75 VDD.n371 VDD.n369 3.1505
R76 VDD.n374 VDD.n372 3.1505
R77 VDD.n377 VDD.n375 3.1505
R78 VDD.n380 VDD.n378 3.1505
R79 VDD.n383 VDD.n381 3.1505
R80 VDD.n386 VDD.n384 3.1505
R81 VDD.n389 VDD.n387 3.1505
R82 VDD.n392 VDD.n390 3.1505
R83 VDD.n395 VDD.n393 3.1505
R84 VDD.n398 VDD.n396 3.1505
R85 VDD.n66 VDD.n65 3.1505
R86 VDD.n64 VDD.n63 3.1505
R87 VDD.n61 VDD.n60 3.1505
R88 VDD.n59 VDD.n58 3.1505
R89 VDD.n57 VDD.n56 3.1505
R90 VDD.n55 VDD.n54 3.1505
R91 VDD.n53 VDD.n52 3.1505
R92 VDD.n51 VDD.n50 3.1505
R93 VDD.n48 VDD.n47 3.1505
R94 VDD.n46 VDD.n45 3.1505
R95 VDD.n44 VDD.n43 3.1505
R96 VDD.n41 VDD.n40 3.1505
R97 VDD.n266 VDD.n265 3.1505
R98 VDD.n270 VDD.n269 3.1505
R99 VDD.n274 VDD.n273 3.1505
R100 VDD.n278 VDD.n277 3.1505
R101 VDD.n282 VDD.n281 3.1505
R102 VDD.n286 VDD.n285 3.1505
R103 VDD.n290 VDD.n289 3.1505
R104 VDD.n294 VDD.n293 3.1505
R105 VDD.n298 VDD.n297 3.1505
R106 VDD.n302 VDD.n301 3.1505
R107 VDD.n306 VDD.n305 3.1505
R108 VDD.n310 VDD.n309 3.1505
R109 VDD.n314 VDD.n313 3.1505
R110 VDD.n318 VDD.n317 3.1505
R111 VDD.n322 VDD.n321 3.1505
R112 VDD.n326 VDD.n325 3.1505
R113 VDD.n330 VDD.n329 3.1505
R114 VDD.n334 VDD.n333 3.1505
R115 VDD.n338 VDD.n337 3.1505
R116 VDD.n665 VDD.n664 3.1505
R117 VDD.n661 VDD.n660 3.1505
R118 VDD.n657 VDD.n656 3.1505
R119 VDD.n653 VDD.n652 3.1505
R120 VDD.n649 VDD.n648 3.1505
R121 VDD.n645 VDD.n644 3.1505
R122 VDD.n641 VDD.n640 3.1505
R123 VDD.n637 VDD.n636 3.1505
R124 VDD.n633 VDD.n632 3.1505
R125 VDD.n629 VDD.n628 3.1505
R126 VDD.n625 VDD.n624 3.1505
R127 VDD.n621 VDD.n620 3.1505
R128 VDD.n617 VDD.n616 3.1505
R129 VDD.n613 VDD.n612 3.1505
R130 VDD.n609 VDD.n608 3.1505
R131 VDD.n605 VDD.n604 3.1505
R132 VDD.n601 VDD.n600 3.1505
R133 VDD.n597 VDD.n596 3.1505
R134 VDD.n593 VDD.n592 3.1505
R135 VDD.n471 VDD.n341 3.1505
R136 VDD.n538 VDD.n537 3.1505
R137 VDD.n534 VDD.n533 3.1505
R138 VDD.n532 VDD.n531 3.1505
R139 VDD.n529 VDD.n528 3.1505
R140 VDD.n527 VDD.n526 3.1505
R141 VDD.n524 VDD.n523 3.1505
R142 VDD.n522 VDD.n521 3.1505
R143 VDD.n518 VDD.n517 3.1505
R144 VDD.n516 VDD.n515 3.1505
R145 VDD.n513 VDD.n512 3.1505
R146 VDD.n511 VDD.n510 3.1505
R147 VDD.n508 VDD.n507 3.1505
R148 VDD.n506 VDD.n505 3.1505
R149 VDD.n504 VDD.n503 3.1505
R150 VDD.n502 VDD.n501 3.1505
R151 VDD.n500 VDD.n499 3.1505
R152 VDD.n498 VDD.n497 3.1505
R153 VDD.n495 VDD.n494 3.1505
R154 VDD.n493 VDD.n492 3.1505
R155 VDD.n491 VDD.n490 3.1505
R156 VDD.n488 VDD.n487 3.1505
R157 VDD.n486 VDD.n485 3.1505
R158 VDD.n484 VDD.n483 3.1505
R159 VDD.n482 VDD.n481 3.1505
R160 VDD.n480 VDD.n479 3.1505
R161 VDD.n478 VDD.n477 3.1505
R162 VDD.n475 VDD.n474 3.1505
R163 VDD.n473 VDD.n472 3.1505
R164 VDD.n540 VDD.n539 3.1505
R165 VDD.n470 VDD.n469 3.1505
R166 VDD.n127 VDD.n126 3.1505
R167 VDD.n124 VDD.n123 3.1505
R168 VDD.n121 VDD.n120 3.1505
R169 VDD.n118 VDD.n117 3.1505
R170 VDD.n115 VDD.n114 3.1505
R171 VDD.n112 VDD.n111 3.1505
R172 VDD.n109 VDD.n108 3.1505
R173 VDD.n106 VDD.n105 3.1505
R174 VDD.n103 VDD.n102 3.1505
R175 VDD.n100 VDD.n99 3.1505
R176 VDD.n97 VDD.n96 3.1505
R177 VDD.n94 VDD.n93 3.1505
R178 VDD.n91 VDD.n90 3.1505
R179 VDD.n88 VDD.n87 3.1505
R180 VDD.n85 VDD.n84 3.1505
R181 VDD.n82 VDD.n81 3.1505
R182 VDD.n79 VDD.n78 3.1505
R183 VDD.n76 VDD.n75 3.1505
R184 VDD.n73 VDD.n72 3.1505
R185 VDD.n344 VDD.n343 3.1505
R186 VDD.n347 VDD.n346 3.1505
R187 VDD.n350 VDD.n349 3.1505
R188 VDD.n353 VDD.n352 3.1505
R189 VDD.n356 VDD.n355 3.1505
R190 VDD.n359 VDD.n358 3.1505
R191 VDD.n362 VDD.n361 3.1505
R192 VDD.n365 VDD.n364 3.1505
R193 VDD.n368 VDD.n367 3.1505
R194 VDD.n371 VDD.n370 3.1505
R195 VDD.n374 VDD.n373 3.1505
R196 VDD.n377 VDD.n376 3.1505
R197 VDD.n380 VDD.n379 3.1505
R198 VDD.n383 VDD.n382 3.1505
R199 VDD.n386 VDD.n385 3.1505
R200 VDD.n389 VDD.n388 3.1505
R201 VDD.n392 VDD.n391 3.1505
R202 VDD.n395 VDD.n394 3.1505
R203 VDD.n398 VDD.n397 3.1505
R204 VDD.n130 VDD.n129 3.1505
R205 VDD.n132 VDD.n131 3.1505
R206 VDD.n134 VDD.n133 3.1505
R207 VDD.n136 VDD.n135 3.1505
R208 VDD.n139 VDD.n138 3.1505
R209 VDD.n141 VDD.n140 3.1505
R210 VDD.n143 VDD.n142 3.1505
R211 VDD.n145 VDD.n144 3.1505
R212 VDD.n147 VDD.n146 3.1505
R213 VDD.n149 VDD.n148 3.1505
R214 VDD.n152 VDD.n151 3.1505
R215 VDD.n154 VDD.n153 3.1505
R216 VDD.n156 VDD.n155 3.1505
R217 VDD.n160 VDD.n159 3.1505
R218 VDD.n163 VDD.n162 3.1505
R219 VDD.n166 VDD.n165 3.1505
R220 VDD.n169 VDD.n168 3.1505
R221 VDD.n172 VDD.n171 3.1505
R222 VDD.n175 VDD.n174 3.1505
R223 VDD.n179 VDD.n178 3.1505
R224 VDD.n182 VDD.n181 3.1505
R225 VDD.n185 VDD.n184 3.1505
R226 VDD.n188 VDD.n187 3.1505
R227 VDD.n192 VDD.n191 3.1505
R228 VDD.n195 VDD.n194 3.1505
R229 VDD.n198 VDD.n197 3.1505
R230 VDD.n201 VDD.n200 3.1505
R231 VDD.n204 VDD.n203 3.1505
R232 VDD.n207 VDD.n206 3.1505
R233 VDD.n211 VDD.n210 3.1505
R234 VDD.n214 VDD.n213 3.1505
R235 VDD.n264 VDD.n263 3.1505
R236 VDD.n268 VDD.n267 3.1505
R237 VDD.n267 VDD.n266 3.1505
R238 VDD.n272 VDD.n271 3.1505
R239 VDD.n271 VDD.n270 3.1505
R240 VDD.n276 VDD.n275 3.1505
R241 VDD.n275 VDD.n274 3.1505
R242 VDD.n280 VDD.n279 3.1505
R243 VDD.n279 VDD.n278 3.1505
R244 VDD.n284 VDD.n283 3.1505
R245 VDD.n283 VDD.n282 3.1505
R246 VDD.n288 VDD.n287 3.1505
R247 VDD.n287 VDD.n286 3.1505
R248 VDD.n292 VDD.n291 3.1505
R249 VDD.n291 VDD.n290 3.1505
R250 VDD.n296 VDD.n295 3.1505
R251 VDD.n295 VDD.n294 3.1505
R252 VDD.n300 VDD.n299 3.1505
R253 VDD.n299 VDD.n298 3.1505
R254 VDD.n304 VDD.n303 3.1505
R255 VDD.n303 VDD.n302 3.1505
R256 VDD.n308 VDD.n307 3.1505
R257 VDD.n307 VDD.n306 3.1505
R258 VDD.n312 VDD.n311 3.1505
R259 VDD.n311 VDD.n310 3.1505
R260 VDD.n316 VDD.n315 3.1505
R261 VDD.n315 VDD.n314 3.1505
R262 VDD.n320 VDD.n319 3.1505
R263 VDD.n319 VDD.n318 3.1505
R264 VDD.n324 VDD.n323 3.1505
R265 VDD.n323 VDD.n322 3.1505
R266 VDD.n328 VDD.n327 3.1505
R267 VDD.n327 VDD.n326 3.1505
R268 VDD.n332 VDD.n331 3.1505
R269 VDD.n331 VDD.n330 3.1505
R270 VDD.n336 VDD.n335 3.1505
R271 VDD.n335 VDD.n334 3.1505
R272 VDD.n340 VDD.n339 3.1505
R273 VDD.n339 VDD.n338 3.1505
R274 VDD.n667 VDD.n666 3.1505
R275 VDD.n666 VDD.n665 3.1505
R276 VDD.n663 VDD.n662 3.1505
R277 VDD.n662 VDD.n661 3.1505
R278 VDD.n659 VDD.n658 3.1505
R279 VDD.n658 VDD.n657 3.1505
R280 VDD.n655 VDD.n654 3.1505
R281 VDD.n654 VDD.n653 3.1505
R282 VDD.n651 VDD.n650 3.1505
R283 VDD.n650 VDD.n649 3.1505
R284 VDD.n647 VDD.n646 3.1505
R285 VDD.n646 VDD.n645 3.1505
R286 VDD.n643 VDD.n642 3.1505
R287 VDD.n642 VDD.n641 3.1505
R288 VDD.n639 VDD.n638 3.1505
R289 VDD.n638 VDD.n637 3.1505
R290 VDD.n635 VDD.n634 3.1505
R291 VDD.n634 VDD.n633 3.1505
R292 VDD.n631 VDD.n630 3.1505
R293 VDD.n630 VDD.n629 3.1505
R294 VDD.n627 VDD.n626 3.1505
R295 VDD.n626 VDD.n625 3.1505
R296 VDD.n623 VDD.n622 3.1505
R297 VDD.n622 VDD.n621 3.1505
R298 VDD.n619 VDD.n618 3.1505
R299 VDD.n618 VDD.n617 3.1505
R300 VDD.n615 VDD.n614 3.1505
R301 VDD.n614 VDD.n613 3.1505
R302 VDD.n611 VDD.n610 3.1505
R303 VDD.n610 VDD.n609 3.1505
R304 VDD.n607 VDD.n606 3.1505
R305 VDD.n606 VDD.n605 3.1505
R306 VDD.n603 VDD.n602 3.1505
R307 VDD.n602 VDD.n601 3.1505
R308 VDD.n599 VDD.n598 3.1505
R309 VDD.n598 VDD.n597 3.1505
R310 VDD.n595 VDD.n594 3.1505
R311 VDD.n594 VDD.n593 3.1505
R312 VDD.n591 VDD.n590 3.1505
R313 VDD.n334 VDD.t0 2.48574
R314 VDD.n213 VDD.n212 2.39402
R315 VDD.n210 VDD.n209 2.39402
R316 VDD.n206 VDD.n205 2.39402
R317 VDD.n203 VDD.n202 2.39402
R318 VDD.n200 VDD.n199 2.39402
R319 VDD.n197 VDD.n196 2.39402
R320 VDD.n194 VDD.n193 2.39402
R321 VDD.n191 VDD.n190 2.39402
R322 VDD.n187 VDD.n186 2.39402
R323 VDD.n184 VDD.n183 2.39402
R324 VDD.n181 VDD.n180 2.39402
R325 VDD.n178 VDD.n177 2.39402
R326 VDD.n174 VDD.n173 2.39402
R327 VDD.n171 VDD.n170 2.39402
R328 VDD.n168 VDD.n167 2.39402
R329 VDD.n165 VDD.n164 2.39402
R330 VDD.n162 VDD.n161 2.39402
R331 VDD.n159 VDD.n158 2.39402
R332 VDD.n585 VDD.n583 2.27972
R333 VDD.n261 VDD.n250 1.95449
R334 VDD.n261 VDD.n251 1.95449
R335 VDD.n261 VDD.n252 1.95449
R336 VDD.n261 VDD.n253 1.95449
R337 VDD.n261 VDD.n254 1.95449
R338 VDD.n261 VDD.n255 1.95449
R339 VDD.n261 VDD.n256 1.95449
R340 VDD.n261 VDD.n257 1.95449
R341 VDD.n261 VDD.n258 1.95449
R342 VDD.n261 VDD.n259 1.95449
R343 VDD.n261 VDD.n260 1.95449
R344 VDD.n310 VDD.t6 1.86443
R345 VDD.n617 VDD.t5 1.86443
R346 VDD.n559 VDD.n557 1.73593
R347 VDD.n562 VDD.n560 1.73593
R348 VDD.n565 VDD.n563 1.73593
R349 VDD.n568 VDD.n566 1.73593
R350 VDD.n571 VDD.n569 1.73593
R351 VDD.n574 VDD.n572 1.73593
R352 VDD.n577 VDD.n575 1.73593
R353 VDD.n580 VDD.n578 1.73593
R354 VDD.n242 VDD.n240 1.73593
R355 VDD.n239 VDD.n237 1.73593
R356 VDD.n236 VDD.n234 1.73593
R357 VDD.n233 VDD.n231 1.73593
R358 VDD.n230 VDD.n228 1.73593
R359 VDD.n227 VDD.n225 1.73593
R360 VDD.n224 VDD.n222 1.73593
R361 VDD.n221 VDD.n219 1.73593
R362 VDD.n242 VDD.n241 1.73541
R363 VDD.n239 VDD.n238 1.73541
R364 VDD.n236 VDD.n235 1.73541
R365 VDD.n233 VDD.n232 1.73541
R366 VDD.n230 VDD.n229 1.73541
R367 VDD.n227 VDD.n226 1.73541
R368 VDD.n224 VDD.n223 1.73541
R369 VDD.n221 VDD.n220 1.73541
R370 VDD.n580 VDD.n579 1.73541
R371 VDD.n577 VDD.n576 1.73541
R372 VDD.n574 VDD.n573 1.73541
R373 VDD.n571 VDD.n570 1.73541
R374 VDD.n568 VDD.n567 1.73541
R375 VDD.n565 VDD.n564 1.73541
R376 VDD.n562 VDD.n561 1.73541
R377 VDD.n559 VDD.n558 1.73541
R378 VDD.n556 VDD.n555 1.73541
R379 VDD.n537 VDD.n536 1.73527
R380 VDD.n531 VDD.n530 1.73527
R381 VDD.n526 VDD.n525 1.73527
R382 VDD.n521 VDD.n520 1.73527
R383 VDD.n515 VDD.n514 1.73527
R384 VDD.n218 VDD.n216 1.44895
R385 VDD.n218 VDD.n217 1.44847
R386 VDD.n590 VDD.n589 1.4483
R387 VDD.n582 VDD.n581 1.41705
R388 VDD.n588 VDD.n586 1.41673
R389 VDD.n261 VDD.n215 1.41673
R390 VDD.n262 VDD.n261 1.3416
R391 VDD.n588 VDD.n585 1.34143
R392 VDD.n588 VDD.n550 1.15696
R393 VDD.n588 VDD.n582 1.15696
R394 VDD.n263 VDD.n262 1.14056
R395 VDD.n585 VDD.n584 1.14036
R396 VDD.n261 VDD.n249 0.914272
R397 VDD.n588 VDD.n587 0.914044
R398 VDD.n261 VDD.n218 0.852583
R399 VDD.n589 VDD.n588 0.852351
R400 VDD.n588 VDD.n551 0.709103
R401 VDD.n588 VDD.n552 0.709103
R402 VDD.n588 VDD.n553 0.709103
R403 VDD.n588 VDD.n554 0.709103
R404 VDD.n588 VDD.n556 0.709103
R405 VDD.n588 VDD.n559 0.709103
R406 VDD.n588 VDD.n562 0.709103
R407 VDD.n588 VDD.n565 0.709103
R408 VDD.n588 VDD.n568 0.709103
R409 VDD.n588 VDD.n571 0.709103
R410 VDD.n588 VDD.n574 0.709103
R411 VDD.n588 VDD.n577 0.709103
R412 VDD.n588 VDD.n580 0.709103
R413 VDD.n261 VDD.n248 0.709103
R414 VDD.n261 VDD.n247 0.709103
R415 VDD.n261 VDD.n246 0.709103
R416 VDD.n261 VDD.n245 0.709103
R417 VDD.n261 VDD.n244 0.709103
R418 VDD.n261 VDD.n243 0.709103
R419 VDD.n261 VDD.n242 0.709103
R420 VDD.n261 VDD.n239 0.709103
R421 VDD.n261 VDD.n236 0.709103
R422 VDD.n261 VDD.n233 0.709103
R423 VDD.n261 VDD.n230 0.709103
R424 VDD.n261 VDD.n227 0.709103
R425 VDD.n261 VDD.n224 0.709103
R426 VDD.n261 VDD.n221 0.709103
R427 VDD.n588 VDD.n549 0.708865
R428 VDD.n588 VDD.n548 0.708865
R429 VDD.n588 VDD.n547 0.708865
R430 VDD.n588 VDD.n546 0.708865
R431 VDD.n588 VDD.n545 0.708865
R432 VDD.n588 VDD.n544 0.708865
R433 VDD.n588 VDD.n543 0.708865
R434 VDD.n588 VDD.n542 0.708865
R435 VDD.n588 VDD.n541 0.708865
R436 VDD.n322 VDD.t12 0.311155
R437 VDD.n605 VDD.t23 0.311155
R438 VDD.n419 VDD.n418 0.122
R439 VDD.n19 VDD.n18 0.120875
R440 VDD.n268 VDD.n264 0.120875
R441 VDD.n214 VDD.n211 0.11075
R442 VDD.n207 VDD.n204 0.11075
R443 VDD.n204 VDD.n201 0.11075
R444 VDD.n201 VDD.n198 0.11075
R445 VDD.n198 VDD.n195 0.11075
R446 VDD.n195 VDD.n192 0.11075
R447 VDD.n188 VDD.n185 0.11075
R448 VDD.n185 VDD.n182 0.11075
R449 VDD.n182 VDD.n179 0.11075
R450 VDD.n175 VDD.n172 0.11075
R451 VDD.n172 VDD.n169 0.11075
R452 VDD.n169 VDD.n166 0.11075
R453 VDD.n166 VDD.n163 0.11075
R454 VDD.n163 VDD.n160 0.11075
R455 VDD.n156 VDD.n154 0.11075
R456 VDD.n154 VDD.n152 0.11075
R457 VDD.n149 VDD.n147 0.11075
R458 VDD.n147 VDD.n145 0.11075
R459 VDD.n145 VDD.n143 0.11075
R460 VDD.n143 VDD.n141 0.11075
R461 VDD.n141 VDD.n139 0.11075
R462 VDD.n136 VDD.n134 0.11075
R463 VDD.n134 VDD.n132 0.11075
R464 VDD.n18 VDD.n17 0.11075
R465 VDD.n17 VDD.n16 0.11075
R466 VDD.n16 VDD.n15 0.11075
R467 VDD.n15 VDD.n14 0.11075
R468 VDD.n14 VDD.n13 0.11075
R469 VDD.n13 VDD.n12 0.11075
R470 VDD.n12 VDD.n11 0.11075
R471 VDD.n11 VDD.n10 0.11075
R472 VDD.n10 VDD.n9 0.11075
R473 VDD.n9 VDD.n8 0.11075
R474 VDD.n8 VDD.n7 0.11075
R475 VDD.n7 VDD.n6 0.11075
R476 VDD.n6 VDD.n5 0.11075
R477 VDD.n5 VDD.n4 0.11075
R478 VDD.n4 VDD.n3 0.11075
R479 VDD.n3 VDD.n2 0.11075
R480 VDD.n2 VDD.n1 0.11075
R481 VDD.n1 VDD.n0 0.11075
R482 VDD.n400 VDD.n399 0.11075
R483 VDD.n401 VDD.n400 0.11075
R484 VDD.n402 VDD.n401 0.11075
R485 VDD.n403 VDD.n402 0.11075
R486 VDD.n404 VDD.n403 0.11075
R487 VDD.n405 VDD.n404 0.11075
R488 VDD.n406 VDD.n405 0.11075
R489 VDD.n407 VDD.n406 0.11075
R490 VDD.n408 VDD.n407 0.11075
R491 VDD.n409 VDD.n408 0.11075
R492 VDD.n410 VDD.n409 0.11075
R493 VDD.n411 VDD.n410 0.11075
R494 VDD.n412 VDD.n411 0.11075
R495 VDD.n413 VDD.n412 0.11075
R496 VDD.n414 VDD.n413 0.11075
R497 VDD.n415 VDD.n414 0.11075
R498 VDD.n416 VDD.n415 0.11075
R499 VDD.n417 VDD.n416 0.11075
R500 VDD.n68 VDD.n66 0.11075
R501 VDD.n66 VDD.n64 0.11075
R502 VDD.n61 VDD.n59 0.11075
R503 VDD.n59 VDD.n57 0.11075
R504 VDD.n57 VDD.n55 0.11075
R505 VDD.n55 VDD.n53 0.11075
R506 VDD.n53 VDD.n51 0.11075
R507 VDD.n48 VDD.n46 0.11075
R508 VDD.n46 VDD.n44 0.11075
R509 VDD.n41 VDD.n39 0.11075
R510 VDD.n39 VDD.n38 0.11075
R511 VDD.n38 VDD.n37 0.11075
R512 VDD.n37 VDD.n36 0.11075
R513 VDD.n36 VDD.n35 0.11075
R514 VDD.n33 VDD.n32 0.11075
R515 VDD.n32 VDD.n31 0.11075
R516 VDD.n31 VDD.n30 0.11075
R517 VDD.n28 VDD.n27 0.11075
R518 VDD.n27 VDD.n26 0.11075
R519 VDD.n26 VDD.n25 0.11075
R520 VDD.n25 VDD.n24 0.11075
R521 VDD.n24 VDD.n23 0.11075
R522 VDD.n21 VDD.n20 0.11075
R523 VDD.n465 VDD.n463 0.11075
R524 VDD.n463 VDD.n461 0.11075
R525 VDD.n458 VDD.n456 0.11075
R526 VDD.n456 VDD.n454 0.11075
R527 VDD.n454 VDD.n452 0.11075
R528 VDD.n452 VDD.n450 0.11075
R529 VDD.n450 VDD.n448 0.11075
R530 VDD.n445 VDD.n443 0.11075
R531 VDD.n443 VDD.n441 0.11075
R532 VDD.n439 VDD.n438 0.11075
R533 VDD.n438 VDD.n437 0.11075
R534 VDD.n437 VDD.n436 0.11075
R535 VDD.n436 VDD.n435 0.11075
R536 VDD.n435 VDD.n434 0.11075
R537 VDD.n432 VDD.n431 0.11075
R538 VDD.n431 VDD.n430 0.11075
R539 VDD.n430 VDD.n429 0.11075
R540 VDD.n427 VDD.n426 0.11075
R541 VDD.n426 VDD.n425 0.11075
R542 VDD.n425 VDD.n424 0.11075
R543 VDD.n424 VDD.n423 0.11075
R544 VDD.n423 VDD.n422 0.11075
R545 VDD.n420 VDD.n419 0.11075
R546 VDD.n540 VDD.n538 0.11075
R547 VDD.n534 VDD.n532 0.11075
R548 VDD.n532 VDD.n529 0.11075
R549 VDD.n529 VDD.n527 0.11075
R550 VDD.n527 VDD.n524 0.11075
R551 VDD.n524 VDD.n522 0.11075
R552 VDD.n518 VDD.n516 0.11075
R553 VDD.n516 VDD.n513 0.11075
R554 VDD.n513 VDD.n511 0.11075
R555 VDD.n508 VDD.n506 0.11075
R556 VDD.n506 VDD.n504 0.11075
R557 VDD.n504 VDD.n502 0.11075
R558 VDD.n502 VDD.n500 0.11075
R559 VDD.n500 VDD.n498 0.11075
R560 VDD.n495 VDD.n493 0.11075
R561 VDD.n493 VDD.n491 0.11075
R562 VDD.n488 VDD.n486 0.11075
R563 VDD.n486 VDD.n484 0.11075
R564 VDD.n484 VDD.n482 0.11075
R565 VDD.n482 VDD.n480 0.11075
R566 VDD.n480 VDD.n478 0.11075
R567 VDD.n475 VDD.n473 0.11075
R568 VDD.n473 VDD.n471 0.11075
R569 VDD.n471 VDD.n470 0.11075
R570 VDD.n272 VDD.n268 0.11075
R571 VDD.n276 VDD.n272 0.11075
R572 VDD.n280 VDD.n276 0.11075
R573 VDD.n284 VDD.n280 0.11075
R574 VDD.n288 VDD.n284 0.11075
R575 VDD.n292 VDD.n288 0.11075
R576 VDD.n296 VDD.n292 0.11075
R577 VDD.n300 VDD.n296 0.11075
R578 VDD.n304 VDD.n300 0.11075
R579 VDD.n308 VDD.n304 0.11075
R580 VDD.n312 VDD.n308 0.11075
R581 VDD.n316 VDD.n312 0.11075
R582 VDD.n320 VDD.n316 0.11075
R583 VDD.n324 VDD.n320 0.11075
R584 VDD.n328 VDD.n324 0.11075
R585 VDD.n332 VDD.n328 0.11075
R586 VDD.n336 VDD.n332 0.11075
R587 VDD.n340 VDD.n336 0.11075
R588 VDD.n667 VDD.n663 0.11075
R589 VDD.n663 VDD.n659 0.11075
R590 VDD.n659 VDD.n655 0.11075
R591 VDD.n655 VDD.n651 0.11075
R592 VDD.n651 VDD.n647 0.11075
R593 VDD.n647 VDD.n643 0.11075
R594 VDD.n643 VDD.n639 0.11075
R595 VDD.n639 VDD.n635 0.11075
R596 VDD.n635 VDD.n631 0.11075
R597 VDD.n631 VDD.n627 0.11075
R598 VDD.n627 VDD.n623 0.11075
R599 VDD.n623 VDD.n619 0.11075
R600 VDD.n619 VDD.n615 0.11075
R601 VDD.n615 VDD.n611 0.11075
R602 VDD.n611 VDD.n607 0.11075
R603 VDD.n607 VDD.n603 0.11075
R604 VDD.n603 VDD.n599 0.11075
R605 VDD.n599 VDD.n595 0.11075
R606 VDD.n595 VDD.n591 0.11075
R607 VDD.n211 VDD.n208 0.10175
R608 VDD.n22 VDD.n21 0.10175
R609 VDD.n421 VDD.n420 0.10175
R610 VDD.n538 VDD.n535 0.10175
R611 VDD.n192 VDD.n189 0.100625
R612 VDD.n29 VDD.n28 0.100625
R613 VDD.n441 VDD.n440 0.09275
R614 VDD.n496 VDD.n495 0.09275
R615 VDD.n428 VDD.n427 0.08825
R616 VDD.n522 VDD.n519 0.08825
R617 VDD.n157 VDD.n156 0.082625
R618 VDD.n44 VDD.n42 0.082625
R619 VDD.n176 VDD.n175 0.07925
R620 VDD.n35 VDD.n34 0.07925
R621 VDD.n264 VDD.n214 0.077
R622 VDD.n20 VDD.n19 0.077
R623 VDD.n468 VDD.n467 0.077
R624 VDD.n591 VDD.n540 0.077
R625 VDD.n446 VDD.n445 0.075875
R626 VDD.n491 VDD.n489 0.075875
R627 VDD.n434 VDD.n433 0.0725
R628 VDD.n509 VDD.n508 0.0725
R629 VDD.n139 VDD.n137 0.071375
R630 VDD.n62 VDD.n61 0.071375
R631 VDD.n459 VDD.n458 0.071375
R632 VDD.n478 VDD.n476 0.071375
R633 VDD.n152 VDD.n150 0.07025
R634 VDD.n49 VDD.n48 0.07025
R635 VDD.n130 VDD.n128 0.068
R636 VDD.n128 VDD.n70 0.068
R637 VDD.n132 VDD.n130 0.06575
R638 VDD.n418 VDD.n417 0.06575
R639 VDD.n70 VDD.n68 0.06575
R640 VDD.n467 VDD.n465 0.06575
R641 VDD VDD.n340 0.062375
R642 VDD VDD.n667 0.048875
R643 VDD.n150 VDD.n149 0.041
R644 VDD.n51 VDD.n49 0.041
R645 VDD.n137 VDD.n136 0.039875
R646 VDD.n64 VDD.n62 0.039875
R647 VDD.n461 VDD.n459 0.039875
R648 VDD.n476 VDD.n475 0.039875
R649 VDD.n433 VDD.n432 0.03875
R650 VDD.n511 VDD.n509 0.03875
R651 VDD.n127 VDD.n124 0.0369463
R652 VDD.n124 VDD.n121 0.0369463
R653 VDD.n121 VDD.n118 0.0369463
R654 VDD.n118 VDD.n115 0.0369463
R655 VDD.n115 VDD.n112 0.0369463
R656 VDD.n112 VDD.n109 0.0369463
R657 VDD.n109 VDD.n106 0.0369463
R658 VDD.n106 VDD.n103 0.0369463
R659 VDD.n103 VDD.n100 0.0369463
R660 VDD.n100 VDD.n97 0.0369463
R661 VDD.n97 VDD.n94 0.0369463
R662 VDD.n94 VDD.n91 0.0369463
R663 VDD.n91 VDD.n88 0.0369463
R664 VDD.n88 VDD.n85 0.0369463
R665 VDD.n85 VDD.n82 0.0369463
R666 VDD.n82 VDD.n79 0.0369463
R667 VDD.n79 VDD.n76 0.0369463
R668 VDD.n76 VDD.n73 0.0369463
R669 VDD.n347 VDD.n344 0.0369463
R670 VDD.n350 VDD.n347 0.0369463
R671 VDD.n353 VDD.n350 0.0369463
R672 VDD.n356 VDD.n353 0.0369463
R673 VDD.n359 VDD.n356 0.0369463
R674 VDD.n362 VDD.n359 0.0369463
R675 VDD.n365 VDD.n362 0.0369463
R676 VDD.n368 VDD.n365 0.0369463
R677 VDD.n371 VDD.n368 0.0369463
R678 VDD.n374 VDD.n371 0.0369463
R679 VDD.n377 VDD.n374 0.0369463
R680 VDD.n380 VDD.n377 0.0369463
R681 VDD.n383 VDD.n380 0.0369463
R682 VDD.n386 VDD.n383 0.0369463
R683 VDD.n389 VDD.n386 0.0369463
R684 VDD.n392 VDD.n389 0.0369463
R685 VDD.n395 VDD.n392 0.0369463
R686 VDD.n398 VDD.n395 0.0369463
R687 VDD.n448 VDD.n446 0.035375
R688 VDD.n489 VDD.n488 0.035375
R689 VDD.n179 VDD.n176 0.032
R690 VDD.n34 VDD.n33 0.032
R691 VDD.n470 VDD.n468 0.032
R692 VDD.n160 VDD.n157 0.028625
R693 VDD.n42 VDD.n41 0.028625
R694 VDD.n429 VDD.n428 0.023
R695 VDD.n519 VDD.n518 0.023
R696 VDD.n440 VDD.n439 0.0185
R697 VDD.n498 VDD.n496 0.0185
R698 VDD.n128 VDD.n127 0.0179793
R699 VDD.n468 VDD.n398 0.011657
R700 VDD.n189 VDD.n188 0.010625
R701 VDD.n30 VDD.n29 0.010625
R702 VDD.n208 VDD.n207 0.0095
R703 VDD.n23 VDD.n22 0.0095
R704 VDD.n422 VDD.n421 0.0095
R705 VDD.n535 VDD.n534 0.0095
R706 VOUT_OPAMP_N.n0 VOUT_OPAMP_N.t6 6.52638
R707 VOUT_OPAMP_N.n2 VOUT_OPAMP_N.t2 6.43144
R708 VOUT_OPAMP_N.n1 VOUT_OPAMP_N.t0 6.43144
R709 VOUT_OPAMP_N.n0 VOUT_OPAMP_N.t1 6.43144
R710 VOUT_OPAMP_N.n3 VOUT_OPAMP_N.t3 3.18932
R711 VOUT_OPAMP_N.n6 VOUT_OPAMP_N.t5 2.73371
R712 VOUT_OPAMP_N.n6 VOUT_OPAMP_N.t4 2.4088
R713 VOUT_OPAMP_N VOUT_OPAMP_N.n10 1.65759
R714 VOUT_OPAMP_N VOUT_OPAMP_N.n3 1.65341
R715 VOUT_OPAMP_N.n5 VOUT_OPAMP_N.n4 1.4964
R716 VOUT_OPAMP_N.n8 VOUT_OPAMP_N.n7 1.49069
R717 VOUT_OPAMP_N.n10 VOUT_OPAMP_N.n9 1.14993
R718 VOUT_OPAMP_N.n10 VOUT_OPAMP_N.n5 1.14978
R719 VOUT_OPAMP_N.n3 VOUT_OPAMP_N.n2 0.302215
R720 VOUT_OPAMP_N.n1 VOUT_OPAMP_N.n0 0.289625
R721 VOUT_OPAMP_N.n2 VOUT_OPAMP_N.n1 0.069461
R722 VOUT_OPAMP_N.n7 VOUT_OPAMP_N.n6 0.0608233
R723 VOUT_OPAMP_N.n9 VOUT_OPAMP_N.n8 0.0164591
R724 VOUT_N VOUT_N.t0 4.20169
R725 VOUT_N VOUT_N.n0 3.47982
R726 VOUT_N.n0 VOUT_N.t1 2.38651
R727 VOUT_N.n0 VOUT_N.t2 2.2505
R728 VOUT_OPAMP_P.n17 VOUT_OPAMP_P.t4 6.55774
R729 VOUT_OPAMP_P.n19 VOUT_OPAMP_P.t1 6.43045
R730 VOUT_OPAMP_P.n18 VOUT_OPAMP_P.t3 6.42009
R731 VOUT_OPAMP_P.n17 VOUT_OPAMP_P.t2 6.4095
R732 VOUT_OPAMP_P.n12 VOUT_OPAMP_P.n11 2.82778
R733 VOUT_OPAMP_P.n2 VOUT_OPAMP_P.t5 2.73276
R734 VOUT_OPAMP_P.n2 VOUT_OPAMP_P.t6 2.40975
R735 VOUT_OPAMP_P.n21 VOUT_OPAMP_P.n20 2.2505
R736 VOUT_OPAMP_P.n11 VOUT_OPAMP_P.t0 2.1905
R737 VOUT_OPAMP_P VOUT_OPAMP_P.n6 1.67937
R738 VOUT_OPAMP_P.n1 VOUT_OPAMP_P.n0 1.4964
R739 VOUT_OPAMP_P.n4 VOUT_OPAMP_P.n3 1.49069
R740 VOUT_OPAMP_P.n6 VOUT_OPAMP_P.n5 1.14993
R741 VOUT_OPAMP_P.n6 VOUT_OPAMP_P.n1 1.14978
R742 VOUT_OPAMP_P VOUT_OPAMP_P.n21 0.878717
R743 VOUT_OPAMP_P.n20 VOUT_OPAMP_P.n19 0.245262
R744 VOUT_OPAMP_P.n18 VOUT_OPAMP_P.n17 0.212047
R745 VOUT_OPAMP_P.n12 VOUT_OPAMP_P.n10 0.141929
R746 VOUT_OPAMP_P.n14 VOUT_OPAMP_P.n13 0.121357
R747 VOUT_OPAMP_P.n19 VOUT_OPAMP_P.n18 0.0830882
R748 VOUT_OPAMP_P.n3 VOUT_OPAMP_P.n2 0.0608233
R749 VOUT_OPAMP_P.n10 VOUT_OPAMP_P.n9 0.051948
R750 VOUT_OPAMP_P.n14 VOUT_OPAMP_P.n12 0.0210714
R751 VOUT_OPAMP_P.n5 VOUT_OPAMP_P.n4 0.0164591
R752 VOUT_OPAMP_P.n21 VOUT_OPAMP_P.n8 0.0108185
R753 VOUT_OPAMP_P.n16 VOUT_OPAMP_P.n15 0.00764286
R754 VOUT_OPAMP_P.n8 VOUT_OPAMP_P.n7 0.00623248
R755 VOUT_OPAMP_P.n15 VOUT_OPAMP_P.n14 0.00240476