* NGSPICE file created from Filter_magic_flat.ext - technology: gf180mcuC

.subckt pex_Filter_magic VIN_N1 VIN_P1 VOUT_P VOUT_N VDD IBIAS1 VCM1 VSS
X0 VSS OUT1_1.t36 VOUT_N.t270 VSS.t132 nfet_03v3 ad=0.78p pd=3.52u as=1.32p ps=6.88u w=3u l=0.28u
X1 VDD.t1450 VDD.t1449 VDD.t1450 VDD.t1262 pfet_03v3 ad=1.65p pd=8.38u as=0 ps=0 w=3.75u l=0.28u
X2 VOUT_P IBIAS2_1.t122 VDD.t754 VDD.t418 pfet_03v3 ad=0.78p pd=3.52u as=0.78p ps=3.52u w=3u l=0.28u
X3 VOUT_N IBIAS2_1.t123 VDD.t755 VDD.t423 pfet_03v3 ad=1.32p pd=6.88u as=0.78p ps=3.52u w=3u l=0.28u
X4 VDD IBIAS2_1.t124 VOUT_P.t224 VDD.t425 pfet_03v3 ad=0.78p pd=3.52u as=0.78p ps=3.52u w=3u l=0.28u
X5 VB1_1 VOUT_1_1.t2 VCD1.t35 VSS.t6 nfet_03v3 ad=0.26p pd=1.52u as=0.26p ps=1.52u w=1u l=0.28u
X6 VOUT_N OUT1_1.t37 VSS.t357 VSS.t55 nfet_03v3 ad=0.78p pd=3.52u as=0.78p ps=3.52u w=3u l=0.28u
X7 IBIAS2_1 IBIAS2_1.t112 VDD.t753 VDD.t592 pfet_03v3 ad=0.78p pd=3.52u as=0.78p ps=3.52u w=3u l=0.28u
X8 VB21 VB21.t7 IB21.t15 VDD.t28 pfet_03v3 ad=0.13p pd=1.02u as=0.13p ps=1.02u w=0.5u l=0.28u
X9 BD_1 Folded_Diff_Op_Amp_Layout_0.IBIAS.t12 VDD.t106 VDD.t105 pfet_03v3 ad=0.814p pd=3.65u as=0.814p ps=3.65u w=3.13u l=0.56u
X10 Folded_Diff_Op_Amp_Layout_0.VPD VB21.t34 OUT2_1.t22 VDD.t226 pfet_03v3 ad=1.38p pd=7.14u as=0.814p ps=3.65u w=3.13u l=0.28u
X11 OUT2_1 VB21.t35 Folded_Diff_Op_Amp_Layout_0.VPD.t30 VDD.t227 pfet_03v3 ad=0.814p pd=3.65u as=1.38p ps=7.14u w=3.13u l=0.28u
X12 VOUT_P IBIAS2_1.t126 VDD.t126 VDD.t125 pfet_03v3 ad=0.78p pd=3.52u as=0.78p ps=3.52u w=3u l=0.28u
X13 VDD.t1448 VDD.t1447 VDD.t1448 VDD.t1217 pfet_03v3 ad=1.38p pd=7.14u as=0 ps=0 w=3.13u l=0.28u
X14 Folded_Diff_Op_Amp_Layout_0.VND VB21.t36 OUT1_1.t14 VDD.t228 pfet_03v3 ad=1.38p pd=7.14u as=1.38p ps=7.14u w=3.13u l=0.28u
X15 VSS OUT2_1.t36 VOUT_P.t0 VSS.t11 nfet_03v3 ad=0.78p pd=3.52u as=0.78p ps=3.52u w=3u l=0.28u
X16 VSS OUT2_1.t37 VOUT_P.t1 VSS.t14 nfet_03v3 ad=0.78p pd=3.52u as=1.32p ps=6.88u w=3u l=0.28u
X17 VDD IBIAS2_1.t127 VOUT_P.t222 VDD.t127 pfet_03v3 ad=0.78p pd=3.52u as=1.32p ps=6.88u w=3u l=0.28u
X18 VDD IBIAS2_1.t128 VOUT_N.t8 VDD.t130 pfet_03v3 ad=0.78p pd=3.52u as=0.78p ps=3.52u w=3u l=0.28u
X19 VDD IBIAS2_1.t129 VOUT_N.t9 VDD.t133 pfet_03v3 ad=0.78p pd=3.52u as=0.78p ps=3.52u w=3u l=0.28u
X20 VOUT_N IBIAS2_1.t130 VDD.t137 VDD.t136 pfet_03v3 ad=0.78p pd=3.52u as=0.78p ps=3.52u w=3u l=0.28u
X21 VDD IBIAS2_1.t131 VOUT_P.t221 VDD.t138 pfet_03v3 ad=0.78p pd=3.52u as=0.78p ps=3.52u w=3u l=0.28u
X22 VB1_1 VOUT_1_1.t3 VCD1.t34 VSS.t84 nfet_03v3 ad=0.26p pd=1.52u as=0.26p ps=1.52u w=1u l=0.28u
X23 VDD IBIAS2_1.t110 IBIAS2_1.t111 VDD.t678 pfet_03v3 ad=0.78p pd=3.52u as=0.78p ps=3.52u w=3u l=0.28u
X24 VBM1 VCM1.t0 VCD1.t52 VSS.t4 nfet_03v3 ad=0.44p pd=2.88u as=0.26p ps=1.52u w=1u l=0.28u
X25 VOUT_P IBIAS2_1.t132 VDD.t142 VDD.t141 pfet_03v3 ad=0.78p pd=3.52u as=0.78p ps=3.52u w=3u l=0.28u
X26 VDD IBIAS4_1.t5 IB4_1.t17 VDD.t723 pfet_03v3 ad=1.32p pd=6.88u as=0.78p ps=3.52u w=3u l=0.28u
X27 VB21 VB21.t13 IB21.t14 VDD.t31 pfet_03v3 ad=0.13p pd=1.02u as=0.13p ps=1.02u w=0.5u l=0.28u
X28 VOUT_P OUT2_1.t38 VSS.t18 VSS.t17 nfet_03v3 ad=0.78p pd=3.52u as=0.78p ps=3.52u w=3u l=0.28u
X29 a_25284_4817# a_24108_3715# VDD.t1147 ppolyf_u r_width=1u r_length=5u
X30 IBIAS2_1 IVS_1.t76 VSS.t1 VSS.t0 nfet_03v3 ad=0.52p pd=2.52u as=0.52p ps=2.52u w=2u l=1u
X31 IBS1 IBS1.t7 VSS.t10 VSS.t9 nfet_03v3 ad=0.26p pd=1.52u as=0.26p ps=1.52u w=1u l=1u
X32 VOUT_P IBIAS2_1.t133 VDD.t143 VDD.t141 pfet_03v3 ad=0.78p pd=3.52u as=0.78p ps=3.52u w=3u l=0.28u
X33 VOUT_N IBIAS2_1.t134 VDD.t145 VDD.t144 pfet_03v3 ad=0.78p pd=3.52u as=0.78p ps=3.52u w=3u l=0.28u
X34 VDD IBIAS2_1.t135 VOUT_P.t218 VDD.t146 pfet_03v3 ad=0.78p pd=3.52u as=0.78p ps=3.52u w=3u l=0.28u
X35 a_24836_4817# a_26012_3715# VDD.t968 ppolyf_u r_width=1u r_length=5u
X36 IB4_1 IB4_1.t8 VSS.t664 VSS.t183 nfet_03v3 ad=0.52p pd=2.52u as=0.52p ps=2.52u w=2u l=1u
X37 VSS VBIASN1.t5 VB21.t0 VSS.t381 nfet_03v3 ad=0.26p pd=1.52u as=0.44p ps=2.88u w=1u l=0.56u
X38 VOUT_N IBIAS2_1.t136 VDD.t150 VDD.t149 pfet_03v3 ad=0.78p pd=3.52u as=0.78p ps=3.52u w=3u l=0.28u
X39 VDD IBIAS2_1.t137 VOUT_P.t217 VDD.t49 pfet_03v3 ad=0.78p pd=3.52u as=0.78p ps=3.52u w=3u l=0.28u
X40 VOUT_P IBIAS2_1.t138 VDD.t382 VDD.t381 pfet_03v3 ad=0.78p pd=3.52u as=0.78p ps=3.52u w=3u l=0.28u
X41 VBM1 VCM1.t1 VCD1.t2 VSS.t111 nfet_03v3 ad=0.26p pd=1.52u as=0.26p ps=1.52u w=1u l=0.28u
X42 VSS OUT2_1.t39 VOUT_P.t3 VSS.t19 nfet_03v3 ad=0.78p pd=3.52u as=0.78p ps=3.52u w=3u l=0.28u
X43 VDD IBIAS2_1.t139 VOUT_N.t59 VDD.t362 pfet_03v3 ad=0.78p pd=3.52u as=0.78p ps=3.52u w=3u l=0.28u
X44 VSS.t628 VSS.t627 VSS.t628 VSS.t440 nfet_03v3 ad=1.32p pd=6.88u as=0 ps=0 w=3u l=0.28u
X45 VDD IBIAS2_1.t140 VOUT_P.t215 VDD.t385 pfet_03v3 ad=0.78p pd=3.52u as=1.32p ps=6.88u w=3u l=0.28u
X46 VDD IBIAS11.t2 IBS1.t2 VDD.t1040 pfet_03v3 ad=1.04p pd=4.52u as=1.76p ps=8.88u w=4u l=0.56u
X47 VOUT_N OUT1_1.t38 VSS.t356 VSS.t22 nfet_03v3 ad=0.78p pd=3.52u as=0.78p ps=3.52u w=3u l=0.28u
X48 VOUT_N IBIAS2_1.t141 VDD.t388 VDD.t381 pfet_03v3 ad=0.78p pd=3.52u as=0.78p ps=3.52u w=3u l=0.28u
X49 BD_1 Folded_Diff_Op_Amp_Layout_0.IBIAS.t13 VDD.t107 VDD.t105 pfet_03v3 ad=0.814p pd=3.65u as=0.814p ps=3.65u w=3.13u l=0.56u
X50 VOUT_P OUT2_1.t40 VSS.t23 VSS.t22 nfet_03v3 ad=0.78p pd=3.52u as=0.78p ps=3.52u w=3u l=0.28u
X51 VOUT_P IBIAS2_1.t142 VDD.t390 VDD.t389 pfet_03v3 ad=0.78p pd=3.52u as=0.78p ps=3.52u w=3u l=0.28u
X52 VOUT_N IBIAS2_1.t143 VDD.t391 VDD.t325 pfet_03v3 ad=1.32p pd=6.88u as=0.78p ps=3.52u w=3u l=0.28u
X53 VIN_N1.t0 a_n5986_5540# VDD.t980 ppolyf_u r_width=1u r_length=2.3u
X54 VDD IBIAS2_1.t108 IBIAS2_1.t109 VDD.t97 pfet_03v3 ad=0.78p pd=3.52u as=0.78p ps=3.52u w=3u l=0.28u
X55 VOUT_N IBIAS2_1.t144 VDD.t392 VDD.t69 pfet_03v3 ad=1.32p pd=6.88u as=0.78p ps=3.52u w=3u l=0.28u
X56 OPAMP_C_1.t4 VOUT_N.t6 cap_mim_2f0_m4m5_noshield c_width=21u c_length=21u
X57 VB1_1 VOUT_1_1.t4 VCD1.t33 VSS.t8 nfet_03v3 ad=0.26p pd=1.52u as=0.26p ps=1.52u w=1u l=0.28u
X58 VDD.t1446 VDD.t1445 VDD.t1446 VDD.t1381 pfet_03v3 ad=1.76p pd=8.88u as=0 ps=0 w=4u l=0.28u
X59 VSS OUT2_1.t41 VOUT_P.t5 VSS.t24 nfet_03v3 ad=0.78p pd=3.52u as=0.78p ps=3.52u w=3u l=0.28u
X60 VDD IBIAS2_1.t145 VOUT_N.t63 VDD.t138 pfet_03v3 ad=0.78p pd=3.52u as=0.78p ps=3.52u w=3u l=0.28u
X61 VOUT_P OUT2_1.t42 VSS.t28 VSS.t27 nfet_03v3 ad=0.78p pd=3.52u as=0.78p ps=3.52u w=3u l=0.28u
X62 VDD IBIAS2_1.t146 VOUT_N.t64 VDD.t395 pfet_03v3 ad=0.78p pd=3.52u as=0.78p ps=3.52u w=3u l=0.28u
X63 VOUT_P IBIAS2_1.t147 VDD.t398 VDD.t73 pfet_03v3 ad=0.78p pd=3.52u as=0.78p ps=3.52u w=3u l=0.28u
X64 VCD1 VCM1.t2 VBM1.t27 VSS.t3 nfet_03v3 ad=0.26p pd=1.52u as=0.26p ps=1.52u w=1u l=0.28u
X65 a_n5706_9350# a_n6266_8788# VDD.t121 ppolyf_u r_width=1u r_length=2.3u
X66 VDD.t218 VDD.t219 VDD.t217 ppolyf_u r_width=1u r_length=2.3u
X67 IVS_1 IVS_1.t28 VSS.t195 VSS.t194 nfet_03v3 ad=0.52p pd=2.52u as=0.52p ps=2.52u w=2u l=1u
X68 VDD.t1444 VDD.t1443 VDD.t1444 VDD.t1322 pfet_03v3 ad=1.65p pd=8.38u as=0 ps=0 w=3.75u l=0.28u
X69 VSS.t626 VSS.t625 VSS.t626 VSS.t440 nfet_03v3 ad=1.32p pd=6.88u as=0 ps=0 w=3u l=0.28u
X70 BD_1 Folded_Diff_Op_Amp_Layout_0.IBIAS.t14 VDD.t1009 VDD.t341 pfet_03v3 ad=0.814p pd=3.65u as=0.814p ps=3.65u w=3.13u l=0.56u
X71 VDD.t1442 VDD.t1441 VDD.t1442 VDD.t1319 pfet_03v3 ad=1.65p pd=8.38u as=0 ps=0 w=3.75u l=0.28u
X72 R7_R8_R10_C1.t2 a_n6826_5540# VDD.t0 ppolyf_u r_width=1u r_length=2.3u
X73 IND1 VB41.t32 VSS.t209 VSS.t208 nfet_03v3 ad=1.27p pd=6.64u as=0.749p ps=3.4u w=2.88u l=0.28u
X74 VOUT_P OUT2_1.t43 VSS.t30 VSS.t29 nfet_03v3 ad=0.78p pd=3.52u as=0.78p ps=3.52u w=3u l=0.28u
X75 VOUT_P OUT2_1.t44 VSS.t32 VSS.t31 nfet_03v3 ad=0.78p pd=3.52u as=0.78p ps=3.52u w=3u l=0.28u
X76 IBS1 IBIAS11.t3 VDD.t1055 VDD.t1054 pfet_03v3 ad=1.04p pd=4.52u as=1.04p ps=4.52u w=4u l=0.56u
X77 Folded_Diff_Op_Amp_Layout_0.VND VB21.t38 OUT1_1.t15 VDD.t229 pfet_03v3 ad=1.38p pd=7.14u as=0.814p ps=3.65u w=3.13u l=0.28u
X78 VOUT_N OUT1_1.t39 VSS.t355 VSS.t38 nfet_03v3 ad=0.78p pd=3.52u as=0.78p ps=3.52u w=3u l=0.28u
X79 VDD IBIAS2_1.t148 VOUT_P.t212 VDD.t399 pfet_03v3 ad=0.78p pd=3.52u as=0.78p ps=3.52u w=3u l=0.28u
X80 VOUT_N IBIAS2_1.t149 VDD.t403 VDD.t402 pfet_03v3 ad=0.78p pd=3.52u as=0.78p ps=3.52u w=3u l=0.28u
X81 Folded_Diff_Op_Amp_Layout_0.VPD VB21.t39 OUT2_1.t21 VDD.t230 pfet_03v3 ad=1.38p pd=7.14u as=0.814p ps=3.65u w=3.13u l=0.28u
X82 VDD IBIAS2_1.t150 VOUT_N.t112 VDD.t267 pfet_03v3 ad=0.78p pd=3.52u as=0.78p ps=3.52u w=3u l=0.28u
X83 VCD1 VOUT_1_1.t5 VB1_1.t30 VSS.t85 nfet_03v3 ad=0.26p pd=1.52u as=0.26p ps=1.52u w=1u l=0.28u
X84 VSS OUT1_1.t40 VOUT_N.t269 VSS.t69 nfet_03v3 ad=0.78p pd=3.52u as=0.78p ps=3.52u w=3u l=0.28u
X85 IB21 VB21.t31 VB21.t32 VDD.t225 pfet_03v3 ad=0.13p pd=1.02u as=0.13p ps=1.02u w=0.5u l=0.28u
X86 VDD IBIAS2_1.t106 IBIAS2_1.t107 VDD.t94 pfet_03v3 ad=0.78p pd=3.52u as=0.78p ps=3.52u w=3u l=0.28u
X87 IBIAS2_1 IBIAS2_1.t104 VDD.t93 VDD.t92 pfet_03v3 ad=0.78p pd=3.52u as=0.78p ps=3.52u w=3u l=0.28u
X88 VOUT_P IBIAS2_1.t152 VDD.t566 VDD.t477 pfet_03v3 ad=0.78p pd=3.52u as=0.78p ps=3.52u w=3u l=0.28u
X89 VOUT_P IBIAS2_1.t153 VDD.t567 VDD.t402 pfet_03v3 ad=0.78p pd=3.52u as=0.78p ps=3.52u w=3u l=0.28u
X90 VOUT_P OUT2_1.t45 VSS.t34 VSS.t33 nfet_03v3 ad=0.78p pd=3.52u as=0.78p ps=3.52u w=3u l=0.28u
X91 VDD VB1_1.t34 Folded_Diff_Op_Amp_Layout_0.VPD.t15 VDD.t1091 pfet_03v3 ad=0.814p pd=3.65u as=0.814p ps=3.65u w=3.13u l=0.28u
X92 VDD IBIAS11.t4 VBIASN1.t4 VDD.t1056 pfet_03v3 ad=1.04p pd=4.52u as=1.76p ps=8.88u w=4u l=0.56u
X93 BD_1 VOUT_OPAMP_P.t7 IPD1.t71 VDD.t1050 pfet_03v3 ad=0.975p pd=4.27u as=0.975p ps=4.27u w=3.75u l=0.28u
X94 VDD IBIAS2_1.t154 VOUT_P.t209 VDD.t275 pfet_03v3 ad=0.78p pd=3.52u as=0.78p ps=3.52u w=3u l=0.28u
X95 VOUT_N IBIAS2_1.t155 VDD.t571 VDD.t570 pfet_03v3 ad=0.78p pd=3.52u as=0.78p ps=3.52u w=3u l=0.28u
X96 VDD Folded_Diff_Op_Amp_Layout_0.IBIAS.t15 BD_1.t34 VDD.t1010 pfet_03v3 ad=0.814p pd=3.65u as=0.814p ps=3.65u w=3.13u l=0.56u
X97 VSS OUT2_1.t46 VOUT_P.t10 VSS.t35 nfet_03v3 ad=0.78p pd=3.52u as=0.78p ps=3.52u w=3u l=0.28u
X98 IND1 VOUT_OPAMP_N.t7 BD_1.t38 VDD.t784 pfet_03v3 ad=0.975p pd=4.27u as=0.975p ps=4.27u w=3.75u l=0.28u
X99 VB41 Folded_Diff_Op_Amp_Layout_0.IB5 Folded_Diff_Op_Amp_Layout_0.IB5 VSS.t98 nfet_03v3 ad=0.26p pd=1.52u as=0.26p ps=1.52u w=1u l=0.28u
X100 VSS.t624 VSS.t623 VSS.t624 VSS.t434 nfet_03v3 ad=1.32p pd=6.88u as=0 ps=0 w=3u l=0.28u
X101 VSS OUT1_1.t41 VOUT_N.t268 VSS.t62 nfet_03v3 ad=0.78p pd=3.52u as=0.78p ps=3.52u w=3u l=0.28u
X102 VOUT_N IBIAS2_1.t156 VDD.t572 VDD.t136 pfet_03v3 ad=0.78p pd=3.52u as=0.78p ps=3.52u w=3u l=0.28u
X103 VDD IBIAS2_1.t157 VOUT_P.t208 VDD.t333 pfet_03v3 ad=0.78p pd=3.52u as=0.78p ps=3.52u w=3u l=0.28u
X104 OUT1_1.t30 OPAMP_C_1.t0 VDD.t1025 ppolyf_u r_width=1u r_length=6.2u
X105 IBIAS3_1 IB4_1.t19 VSS.t196 VSS.t0 nfet_03v3 ad=0.52p pd=2.52u as=0.52p ps=2.52u w=2u l=1u
X106 Folded_Diff_Op_Amp_Layout_0.VPD VB1_1.t35 VDD.t1095 VDD.t1094 pfet_03v3 ad=0.814p pd=3.65u as=0.814p ps=3.65u w=3.13u l=0.28u
X107 VDD VB1_1.t36 Folded_Diff_Op_Amp_Layout_0.VND.t15 VDD.t1096 pfet_03v3 ad=0.814p pd=3.65u as=0.814p ps=3.65u w=3.13u l=0.28u
X108 VDD.t1440 VDD.t1439 VDD.t1440 VDD.t1311 pfet_03v3 ad=1.32p pd=6.88u as=0 ps=0 w=3u l=0.28u
X109 VBM1 VCM1.t3 VCD1.t51 VSS.t84 nfet_03v3 ad=0.26p pd=1.52u as=0.26p ps=1.52u w=1u l=0.28u
X110 VSS.t622 VSS.t621 VSS.t622 VSS.t455 nfet_03v3 ad=1.27p pd=6.64u as=0 ps=0 w=2.88u l=0.28u
X111 VDD.t1438 VDD.t1437 VDD.t1438 VDD.t1368 pfet_03v3 ad=1.38p pd=7.14u as=0 ps=0 w=3.13u l=0.28u
X112 VOUT_P OUT2_1.t47 VSS.t39 VSS.t38 nfet_03v3 ad=0.78p pd=3.52u as=0.78p ps=3.52u w=3u l=0.28u
X113 VDD IBIAS2_1.t158 VOUT_N.t115 VDD.t322 pfet_03v3 ad=0.78p pd=3.52u as=0.78p ps=3.52u w=3u l=0.28u
X114 IBIAS2_1 IBIAS2_1.t102 VDD.t91 VDD.t83 pfet_03v3 ad=0.78p pd=3.52u as=0.78p ps=3.52u w=3u l=0.28u
X115 VSS VB41.t33 IND1.t53 VSS.t210 nfet_03v3 ad=0.749p pd=3.4u as=0.749p ps=3.4u w=2.88u l=0.28u
X116 VOUT_N IBIAS2_1.t160 VDD.t577 VDD.t458 pfet_03v3 ad=0.78p pd=3.52u as=0.78p ps=3.52u w=3u l=0.28u
X117 VSS OUT2_1.t48 VOUT_P.t12 VSS.t40 nfet_03v3 ad=0.78p pd=3.52u as=0.78p ps=3.52u w=3u l=0.28u
X118 BD_1 VOUT_OPAMP_P.t8 IPD1.t70 VDD.t1047 pfet_03v3 ad=0.975p pd=4.27u as=1.65p ps=8.38u w=3.75u l=0.28u
X119 VSS OUT1_1.t42 VOUT_N.t267 VSS.t40 nfet_03v3 ad=0.78p pd=3.52u as=0.78p ps=3.52u w=3u l=0.28u
X120 VOUT_P OUT2_1.t49 VSS.t44 VSS.t43 nfet_03v3 ad=1.32p pd=6.88u as=0.78p ps=3.52u w=3u l=0.28u
X121 VDD IBIAS2_1.t100 IBIAS2_1.t101 VDD.t88 pfet_03v3 ad=0.78p pd=3.52u as=0.78p ps=3.52u w=3u l=0.28u
X122 VDD IBIAS2_1.t161 VOUT_P.t207 VDD.t330 pfet_03v3 ad=0.78p pd=3.52u as=0.78p ps=3.52u w=3u l=0.28u
X123 VDD IBIAS2_1.t98 IBIAS2_1.t99 VDD.t85 pfet_03v3 ad=0.78p pd=3.52u as=0.78p ps=3.52u w=3u l=0.28u
X124 Folded_Diff_Op_Amp_Layout_0.VPD VB21.t41 OUT2_1.t20 VDD.t228 pfet_03v3 ad=1.38p pd=7.14u as=1.38p ps=7.14u w=3.13u l=0.28u
X125 OUT2_1 VB21.t42 Folded_Diff_Op_Amp_Layout_0.VPD.t27 VDD.t231 pfet_03v3 ad=0.814p pd=3.65u as=1.38p ps=7.14u w=3.13u l=0.28u
X126 OPAMP_C1_1.t4 VOUT_P.t269 cap_mim_2f0_m4m5_noshield c_width=21u c_length=21u
X127 VDD Folded_Diff_Op_Amp_Layout_0.IBIAS.t16 BD_1.t33 VDD.t1010 pfet_03v3 ad=0.814p pd=3.65u as=0.814p ps=3.65u w=3.13u l=0.56u
X128 BD_1 VOUT_OPAMP_N.t8 IND1.t57 VDD.t785 pfet_03v3 ad=0.975p pd=4.27u as=0.975p ps=4.27u w=3.75u l=0.28u
X129 VOUT_P IBIAS2_1.t162 VDD.t580 VDD.t434 pfet_03v3 ad=0.78p pd=3.52u as=0.78p ps=3.52u w=3u l=0.28u
X130 IPD1 VOUT_OPAMP_P.t9 BD_1.t49 VDD.t782 pfet_03v3 ad=0.975p pd=4.27u as=0.975p ps=4.27u w=3.75u l=0.28u
X131 a_n5986_9350# VIN_P1.t0 VDD.t980 ppolyf_u r_width=1u r_length=2.3u
X132 BD_1 Folded_Diff_Op_Amp_Layout_0.IBIAS.t17 VDD.t1085 VDD.t341 pfet_03v3 ad=0.814p pd=3.65u as=0.814p ps=3.65u w=3.13u l=0.56u
X133 VOUT_P IBIAS2_1.t163 VDD.t581 VDD.t570 pfet_03v3 ad=0.78p pd=3.52u as=0.78p ps=3.52u w=3u l=0.28u
X134 VOUT_N IBIAS2_1.t164 VDD.t405 VDD.t404 pfet_03v3 ad=0.78p pd=3.52u as=0.78p ps=3.52u w=3u l=0.28u
X135 VSS.t620 VSS.t619 VSS.t620 VSS.t458 nfet_03v3 ad=0.44p pd=2.88u as=0 ps=0 w=1u l=0.28u
X136 VDD IBIAS2_1.t165 VOUT_P.t204 VDD.t406 pfet_03v3 ad=0.78p pd=3.52u as=0.78p ps=3.52u w=3u l=0.28u
X137 VDD IBIAS2_1.t166 VOUT_P.t203 VDD.t357 pfet_03v3 ad=0.78p pd=3.52u as=0.78p ps=3.52u w=3u l=0.28u
X138 a_n7106_6102# a_n5986_5540# VDD.t40 ppolyf_u r_width=1u r_length=2.3u
X139 VOUT_N IBIAS2_1.t167 VDD.t411 VDD.t317 pfet_03v3 ad=0.78p pd=3.52u as=0.78p ps=3.52u w=3u l=0.28u
X140 Folded_Diff_Op_Amp_Layout_0.VPD VB1_1.t37 VDD.t1100 VDD.t1099 pfet_03v3 ad=0.814p pd=3.65u as=0.814p ps=3.65u w=3.13u l=0.28u
X141 IBIAS2_1 IBIAS2_1.t96 VDD.t84 VDD.t83 pfet_03v3 ad=0.78p pd=3.52u as=0.78p ps=3.52u w=3u l=0.28u
X142 VDD IBIAS2_1.t169 VOUT_P.t202 VDD.t165 pfet_03v3 ad=0.78p pd=3.52u as=1.32p ps=6.88u w=3u l=0.28u
X143 VDD.t975 VDD.t976 VDD.t217 ppolyf_u r_width=1u r_length=2.3u
X144 VSS VB41.t34 IPD1.t43 VSS.t210 nfet_03v3 ad=0.749p pd=3.4u as=0.749p ps=3.4u w=2.88u l=0.28u
X145 VDD.t1436 VDD.t1435 VDD.t1436 VDD.t1199 pfet_03v3 ad=1.32p pd=6.88u as=0 ps=0 w=3u l=0.28u
X146 Folded_Diff_Op_Amp_Layout_0.IB5 Folded_Diff_Op_Amp_Layout_0.IB5 VB41.t2 VSS.t97 nfet_03v3 ad=0.26p pd=1.52u as=0.26p ps=1.52u w=1u l=0.28u
X147 VOUT_N IBIAS2_1.t170 VDD.t414 VDD.t313 pfet_03v3 ad=0.78p pd=3.52u as=0.78p ps=3.52u w=3u l=0.28u
X148 a_24556_2845# a_24836_1743# VDD.t1022 ppolyf_u r_width=1u r_length=5u
X149 VSS VB41.t35 IND1.t52 VSS.t215 nfet_03v3 ad=0.749p pd=3.4u as=0.749p ps=3.4u w=2.88u l=0.28u
X150 IND1 VB41.t36 VSS.t219 VSS.t218 nfet_03v3 ad=0.749p pd=3.4u as=0.749p ps=3.4u w=2.88u l=0.28u
X151 VDD IBIAS2_1.t171 VOUT_N.t69 VDD.t415 pfet_03v3 ad=0.78p pd=3.52u as=0.78p ps=3.52u w=3u l=0.28u
X152 a_n6826_9350# R_1.t1 VDD.t0 ppolyf_u r_width=1u r_length=2.3u
X153 a_n6546_6102# a_n5426_5540# VDD.t113 ppolyf_u r_width=1u r_length=2.3u
X154 VOUT_P IBIAS2_1.t172 VDD.t419 VDD.t418 pfet_03v3 ad=0.78p pd=3.52u as=0.78p ps=3.52u w=3u l=0.28u
X155 VDD.t1434 VDD.t1433 VDD.t1434 VDD.t1280 pfet_03v3 ad=1.32p pd=6.88u as=0 ps=0 w=3u l=0.28u
X156 VB21 VB21.t1 IB21.t12 VDD.t995 pfet_03v3 ad=0.13p pd=1.02u as=0.13p ps=1.02u w=0.5u l=0.28u
X157 VSS.t618 VSS.t617 VSS.t618 VSS.t452 nfet_03v3 ad=0.44p pd=2.88u as=0 ps=0 w=1u l=0.28u
X158 Folded_Diff_Op_Amp_Layout_0.VND VB1_1.t38 VDD.t1101 VDD.t1094 pfet_03v3 ad=0.814p pd=3.65u as=0.814p ps=3.65u w=3.13u l=0.28u
X159 VSS.t616 VSS.t615 VSS.t616 VSS.t443 nfet_03v3 ad=1.32p pd=6.88u as=0 ps=0 w=3u l=0.28u
X160 VDD.t1432 VDD.t1431 VDD.t1432 VDD.t1214 pfet_03v3 ad=1.32p pd=6.88u as=0 ps=0 w=3u l=0.28u
X161 VOUT_P IBIAS2_1.t173 VDD.t420 VDD.t71 pfet_03v3 ad=0.78p pd=3.52u as=0.78p ps=3.52u w=3u l=0.28u
X162 VOUT_P IBIAS2_1.t174 VDD.t421 VDD.t209 pfet_03v3 ad=0.78p pd=3.52u as=0.78p ps=3.52u w=3u l=0.28u
X163 VSS VB41.t30 VB41.t31 VSS.t679 nfet_03v3 ad=0.26p pd=1.52u as=0.26p ps=1.52u w=1u l=0.28u
X164 IPD1 VOUT_OPAMP_P.t10 BD_1.t53 VDD.t1048 pfet_03v3 ad=0.975p pd=4.27u as=0.975p ps=4.27u w=3.75u l=0.28u
X165 IND1 VB41.t37 VSS.t221 VSS.t220 nfet_03v3 ad=0.749p pd=3.4u as=0.749p ps=3.4u w=2.88u l=0.28u
X166 VDD VB21.t44 IB21.t16 VDD.t232 pfet_03v3 ad=0.13p pd=1.02u as=0.13p ps=1.02u w=0.5u l=1u
X167 IVS_1 IVS_1.t26 VSS.t380 VSS.t194 nfet_03v3 ad=0.52p pd=2.52u as=0.52p ps=2.52u w=2u l=1u
X168 IBIAS2_1 IBIAS2_1.t94 VDD.t82 VDD.t81 pfet_03v3 ad=0.78p pd=3.52u as=0.78p ps=3.52u w=3u l=0.28u
X169 VOUT_P IBIAS2_1.t176 VDD.t422 VDD.t161 pfet_03v3 ad=0.78p pd=3.52u as=0.78p ps=3.52u w=3u l=0.28u
X170 VOUT_P IBIAS2_1.t177 VDD.t424 VDD.t423 pfet_03v3 ad=1.32p pd=6.88u as=0.78p ps=3.52u w=3u l=0.28u
X171 VDD IBIAS2_1.t178 VOUT_N.t70 VDD.t425 pfet_03v3 ad=0.78p pd=3.52u as=0.78p ps=3.52u w=3u l=0.28u
X172 IBIAS2_1 IBIAS2_1.t92 VDD.t698 VDD.t592 pfet_03v3 ad=0.78p pd=3.52u as=0.78p ps=3.52u w=3u l=0.28u
X173 IND1 VOUT_OPAMP_N.t9 BD_1.t66 VDD.t786 pfet_03v3 ad=0.975p pd=4.27u as=0.975p ps=4.27u w=3.75u l=0.28u
X174 Folded_Diff_Op_Amp_Layout_0.VND VB21.t45 OUT1_1.t17 VDD.t230 pfet_03v3 ad=1.38p pd=7.14u as=0.814p ps=3.65u w=3.13u l=0.28u
X175 VDD IBIAS2_1.t180 VOUT_N.t71 VDD.t184 pfet_03v3 ad=0.78p pd=3.52u as=0.78p ps=3.52u w=3u l=0.28u
X176 VDD IBIAS2_1.t181 VOUT_P.t196 VDD.t133 pfet_03v3 ad=0.78p pd=3.52u as=0.78p ps=3.52u w=3u l=0.28u
X177 VDD IBIAS2_1.t182 VOUT_P.t195 VDD.t130 pfet_03v3 ad=0.78p pd=3.52u as=0.78p ps=3.52u w=3u l=0.28u
X178 VSS IVS_1.t24 IVS_1.t25 VSS.t364 nfet_03v3 ad=0.52p pd=2.52u as=0.52p ps=2.52u w=2u l=1u
X179 VOUT_P IBIAS2_1.t183 VDD.t435 VDD.t434 pfet_03v3 ad=0.78p pd=3.52u as=0.78p ps=3.52u w=3u l=0.28u
X180 IPD1 VB41.t38 VSS.t222 VSS.t218 nfet_03v3 ad=0.749p pd=3.4u as=0.749p ps=3.4u w=2.88u l=0.28u
X181 VDD IBIAS2_1.t184 VOUT_P.t193 VDD.t158 pfet_03v3 ad=0.78p pd=3.52u as=0.78p ps=3.52u w=3u l=0.28u
X182 VDD IBIAS2_1.t185 VOUT_P.t192 VDD.t130 pfet_03v3 ad=0.78p pd=3.52u as=0.78p ps=3.52u w=3u l=0.28u
X183 a_26292_4817# a_26012_3715# VDD.t959 ppolyf_u r_width=1u r_length=5u
X184 VSS VB41.t39 IPD1.t41 VSS.t223 nfet_03v3 ad=0.749p pd=3.4u as=0.749p ps=3.4u w=2.88u l=0.28u
X185 a_26740_4817# a_27020_3715# VDD.t27 ppolyf_u r_width=1u r_length=5u
X186 VOUT_N IBIAS2_1.t186 VDD.t440 VDD.t141 pfet_03v3 ad=0.78p pd=3.52u as=0.78p ps=3.52u w=3u l=0.28u
X187 VDD IBIAS3_1.t21 IVS_1.t72 VDD.t293 pfet_03v3 ad=0.78p pd=3.52u as=0.78p ps=3.52u w=3u l=0.28u
X188 IPD1 VOUT_OPAMP_P.t11 BD_1.t54 VDD.t781 pfet_03v3 ad=0.975p pd=4.27u as=0.975p ps=4.27u w=3.75u l=0.28u
X189 Folded_Diff_Op_Amp_Layout_0.VPD VB21.t46 OUT2_1.t19 VDD.t226 pfet_03v3 ad=1.38p pd=7.14u as=0.814p ps=3.65u w=3.13u l=0.28u
X190 VDD IBIAS2_1.t187 VOUT_N.t73 VDD.t146 pfet_03v3 ad=0.78p pd=3.52u as=0.78p ps=3.52u w=3u l=0.28u
X191 VOUT_N IBIAS2_1.t188 VDD.t443 VDD.t381 pfet_03v3 ad=0.78p pd=3.52u as=0.78p ps=3.52u w=3u l=0.28u
X192 a_n6266_10267# a_n5706_9705# VDD.t121 ppolyf_u r_width=1u r_length=2.3u
X193 VDD.t1430 VDD.t1429 VDD.t1430 VDD.t1217 pfet_03v3 ad=1.38p pd=7.14u as=0 ps=0 w=3.13u l=0.28u
X194 VDD IBIAS2_1.t189 VOUT_N.t75 VDD.t370 pfet_03v3 ad=0.78p pd=3.52u as=0.78p ps=3.52u w=3u l=0.28u
X195 VOUT_N IBIAS2_1.t190 VDD.t446 VDD.t254 pfet_03v3 ad=0.78p pd=3.52u as=0.78p ps=3.52u w=3u l=0.28u
X196 BD_1 VOUT_OPAMP_N.t10 IND1.t59 VDD.t1181 pfet_03v3 ad=0.975p pd=4.27u as=0.975p ps=4.27u w=3.75u l=0.28u
X197 VDD IBIAS2_1.t191 VOUT_N.t77 VDD.t385 pfet_03v3 ad=0.78p pd=3.52u as=1.32p ps=6.88u w=3u l=0.28u
X198 VOUT_N OUT1_1.t43 VSS.t348 VSS.t57 nfet_03v3 ad=1.32p pd=6.88u as=0.78p ps=3.52u w=3u l=0.28u
X199 VOUT_N IBIAS2_1.t192 VDD.t450 VDD.t449 pfet_03v3 ad=0.78p pd=3.52u as=0.78p ps=3.52u w=3u l=0.28u
X200 VSS.t614 VSS.t612 VSS.t614 VSS.t613 nfet_03v3 ad=0.44p pd=2.88u as=0 ps=0 w=1u l=0.28u
X201 VB1_1 VOUT_1_1.t6 VCD1.t32 VSS.t84 nfet_03v3 ad=0.26p pd=1.52u as=0.26p ps=1.52u w=1u l=0.28u
X202 VOUT_P IBIAS2_1.t193 VDD.t829 VDD.t381 pfet_03v3 ad=0.78p pd=3.52u as=0.78p ps=3.52u w=3u l=0.28u
X203 VDD IBIAS2_1.t194 VOUT_N.t161 VDD.t278 pfet_03v3 ad=0.78p pd=3.52u as=0.78p ps=3.52u w=3u l=0.28u
X204 VDD IBIAS2_1.t195 VOUT_N.t162 VDD.t385 pfet_03v3 ad=0.78p pd=3.52u as=1.32p ps=6.88u w=3u l=0.28u
X205 VOUT_N IBIAS2_1.t196 VDD.t834 VDD.t288 pfet_03v3 ad=1.32p pd=6.88u as=0.78p ps=3.52u w=3u l=0.28u
X206 VDD VB1_1.t39 Folded_Diff_Op_Amp_Layout_0.VPD.t12 VDD.t1102 pfet_03v3 ad=0.814p pd=3.65u as=0.814p ps=3.65u w=3.13u l=0.28u
X207 VOUT_P IBIAS2_1.t197 VDD.t835 VDD.t69 pfet_03v3 ad=1.32p pd=6.88u as=0.78p ps=3.52u w=3u l=0.28u
X208 VSS VB41.t40 IPD1.t40 VSS.t226 nfet_03v3 ad=0.749p pd=3.4u as=1.27p ps=6.64u w=2.88u l=0.28u
X209 VDD.t1428 VDD.t1427 VDD.t1428 VDD.t1368 pfet_03v3 ad=1.38p pd=7.14u as=0 ps=0 w=3.13u l=0.28u
X210 OUT1_1.t32 OPAMP_C_1.t2 VDD.t220 ppolyf_u r_width=1u r_length=6.2u
X211 OUT2_1 VB31.t18 IPD1.t0 VSS.t99 nfet_03v3 ad=1.27p pd=6.64u as=0.749p ps=3.4u w=2.88u l=0.28u
X212 VSS.t611 VSS.t610 VSS.t611 VSS.t559 nfet_03v3 ad=1.27p pd=6.64u as=0 ps=0 w=2.88u l=0.28u
X213 VDD IBIAS2_1.t198 VOUT_P.t189 VDD.t395 pfet_03v3 ad=0.78p pd=3.52u as=0.78p ps=3.52u w=3u l=0.28u
X214 a_n5986_9350# a_n7106_8788# VDD.t40 ppolyf_u r_width=1u r_length=2.3u
X215 a_n5146_6102# a_n4866_5185# VDD.t216 ppolyf_u r_width=1u r_length=2.3u
X216 VOUT_N OUT1_1.t44 VSS.t347 VSS.t55 nfet_03v3 ad=0.78p pd=3.52u as=0.78p ps=3.52u w=3u l=0.28u
X217 OUT1_1.t35 OPAMP_C_1.t3 VDD.t960 ppolyf_u r_width=1u r_length=6.2u
X218 VSS VB41.t41 IND1.t49 VSS.t210 nfet_03v3 ad=0.749p pd=3.4u as=0.749p ps=3.4u w=2.88u l=0.28u
X219 VDD VB1_1.t40 Folded_Diff_Op_Amp_Layout_0.VPD.t11 VDD.t1102 pfet_03v3 ad=0.814p pd=3.65u as=0.814p ps=3.65u w=3.13u l=0.28u
X220 IPD1 VB41.t42 VSS.t236 VSS.t208 nfet_03v3 ad=1.27p pd=6.64u as=0.749p ps=3.4u w=2.88u l=0.28u
X221 BD_1 VOUT_OPAMP_N.t11 IND1.t60 VDD.t1043 pfet_03v3 ad=0.975p pd=4.27u as=0.975p ps=4.27u w=3.75u l=0.28u
X222 a_n5426_9350# a_n6546_8788# VDD.t113 ppolyf_u r_width=1u r_length=2.3u
X223 VOUT_P IBIAS2_1.t199 VDD.t838 VDD.t402 pfet_03v3 ad=0.78p pd=3.52u as=0.78p ps=3.52u w=3u l=0.28u
X224 VB41 VB41.t28 VSS.t678 VSS.t677 nfet_03v3 ad=0.26p pd=1.52u as=0.26p ps=1.52u w=1u l=0.28u
X225 VSS.t609 VSS.t608 VSS.t609 VSS.t480 nfet_03v3 ad=1.27p pd=6.64u as=0 ps=0 w=2.88u l=0.28u
X226 VDD IBIAS2_1.t200 VOUT_P.t187 VDD.t267 pfet_03v3 ad=0.78p pd=3.52u as=0.78p ps=3.52u w=3u l=0.28u
X227 IB4_1 IB4_1.t6 VSS.t425 VSS.t194 nfet_03v3 ad=0.52p pd=2.52u as=0.52p ps=2.52u w=2u l=1u
X228 a_n6546_6102# R7_R8_R10_C1.t0 VDD.t117 ppolyf_u r_width=1u r_length=2.3u
X229 VOUT_N IBIAS2_1.t201 VDD.t841 VDD.t161 pfet_03v3 ad=0.78p pd=3.52u as=0.78p ps=3.52u w=3u l=0.28u
X230 VDD IBIAS4_1.t3 IBIAS4_1.t4 VDD.t718 pfet_03v3 ad=1.1p pd=5.88u as=1.1p ps=5.88u w=2.5u l=0.28u
X231 IBIAS2_1 IBIAS2_1.t90 VDD.t697 VDD.t92 pfet_03v3 ad=0.78p pd=3.52u as=0.78p ps=3.52u w=3u l=0.28u
X232 VSS VBIASN1.t2 VBIASN1.t3 VSS.t391 nfet_03v3 ad=0.26p pd=1.52u as=0.26p ps=1.52u w=1u l=0.56u
X233 VOUT_N IBIAS2_1.t203 VDD.t842 VDD.t477 pfet_03v3 ad=0.78p pd=3.52u as=0.78p ps=3.52u w=3u l=0.28u
X234 VDD IBIAS2_1.t204 VOUT_P.t186 VDD.t66 pfet_03v3 ad=0.78p pd=3.52u as=0.78p ps=3.52u w=3u l=0.28u
X235 VOUT_N IBIAS2_1.t205 VDD.t845 VDD.t402 pfet_03v3 ad=0.78p pd=3.52u as=0.78p ps=3.52u w=3u l=0.28u
X236 IVS_1 IBIAS3_1.t22 VDD.t1172 VDD.t9 pfet_03v3 ad=0.78p pd=3.52u as=0.78p ps=3.52u w=3u l=0.28u
X237 VDD.t1426 VDD.t1425 VDD.t1426 VDD.t1217 pfet_03v3 ad=1.38p pd=7.14u as=0 ps=0 w=3.13u l=0.28u
X238 VDD IBIAS2_1.t206 VOUT_N.t167 VDD.t172 pfet_03v3 ad=0.78p pd=3.52u as=1.32p ps=6.88u w=3u l=0.28u
X239 VB41 VB41.t26 VSS.t676 VSS.t675 nfet_03v3 ad=0.26p pd=1.52u as=0.26p ps=1.52u w=1u l=0.28u
X240 BD_1 VOUT_OPAMP_N.t12 IND1.t61 VDD.t1182 pfet_03v3 ad=0.975p pd=4.27u as=0.975p ps=4.27u w=3.75u l=0.28u
X241 Folded_Diff_Op_Amp_Layout_0.VND VB21.t48 OUT1_1.t19 VDD.t229 pfet_03v3 ad=1.38p pd=7.14u as=0.814p ps=3.65u w=3.13u l=0.28u
X242 VSS.t607 VSS.t606 VSS.t607 VSS.t446 nfet_03v3 ad=1.32p pd=6.88u as=0 ps=0 w=3u l=0.28u
X243 VSS OUT1_1.t45 VOUT_N.t266 VSS.t62 nfet_03v3 ad=0.78p pd=3.52u as=0.78p ps=3.52u w=3u l=0.28u
X244 VOUT_N IBIAS2_1.t207 VDD.t848 VDD.t170 pfet_03v3 ad=0.78p pd=3.52u as=0.78p ps=3.52u w=3u l=0.28u
X245 IVS_1 IBIAS3_1.t23 VDD.t1173 VDD.t11 pfet_03v3 ad=0.78p pd=3.52u as=0.78p ps=3.52u w=3u l=0.28u
X246 VSS IVS_1.t79 IBIAS2_1.t115 VSS.t197 nfet_03v3 ad=0.52p pd=2.52u as=0.52p ps=2.52u w=2u l=1u
X247 IPD1 VB31.t19 OUT2_1.t1 VSS.t100 nfet_03v3 ad=0.749p pd=3.4u as=1.27p ps=6.64u w=2.88u l=0.28u
X248 VCD1 VCM1.t4 VBM1.t25 VSS.t7 nfet_03v3 ad=0.26p pd=1.52u as=0.44p ps=2.88u w=1u l=0.28u
X249 VDD.t1424 VDD.t1423 VDD.t1424 VDD.t1256 pfet_03v3 ad=1.38p pd=7.14u as=0 ps=0 w=3.13u l=0.56u
X250 VSS.t605 VSS.t604 VSS.t605 VSS.t443 nfet_03v3 ad=1.32p pd=6.88u as=0 ps=0 w=3u l=0.28u
X251 VDD IBIAS2_1.t208 VOUT_P.t185 VDD.t78 pfet_03v3 ad=0.78p pd=3.52u as=0.78p ps=3.52u w=3u l=0.28u
X252 VOUT_P OUT2_1.t50 VSS.t45 VSS.t17 nfet_03v3 ad=0.78p pd=3.52u as=0.78p ps=3.52u w=3u l=0.28u
X253 VOUT_P IBIAS2_1.t209 VDD.t453 VDD.t136 pfet_03v3 ad=0.78p pd=3.52u as=0.78p ps=3.52u w=3u l=0.28u
X254 VDD IBIAS2_1.t210 VOUT_N.t79 VDD.t333 pfet_03v3 ad=0.78p pd=3.52u as=0.78p ps=3.52u w=3u l=0.28u
X255 a_24108_2845# VOUT_P.t271 VDD.t43 ppolyf_u r_width=1u r_length=5u
X256 IB31 VB31.t14 VB31.t15 VSS.t92 nfet_03v3 ad=0.26p pd=1.52u as=0.26p ps=1.52u w=1u l=0.28u
X257 VDD.t1422 VDD.t1421 VDD.t1422 VDD.t1311 pfet_03v3 ad=1.32p pd=6.88u as=0 ps=0 w=3u l=0.28u
X258 a_n5426_10267# a_n4866_9705# VDD.t980 ppolyf_u r_width=1u r_length=2.3u
X259 VDD IBIAS2_1.t211 VOUT_P.t183 VDD.t322 pfet_03v3 ad=0.78p pd=3.52u as=0.78p ps=3.52u w=3u l=0.28u
X260 BD_1 VOUT_OPAMP_P.t12 IPD1.t66 VDD.t1049 pfet_03v3 ad=0.975p pd=4.27u as=1.65p ps=8.38u w=3.75u l=0.28u
X261 VOUT_P IBIAS2_1.t212 VDD.t459 VDD.t458 pfet_03v3 ad=0.78p pd=3.52u as=0.78p ps=3.52u w=3u l=0.28u
X262 VCD1 VOUT_1_1.t7 VB1_1.t28 VSS.t2 nfet_03v3 ad=0.26p pd=1.52u as=0.26p ps=1.52u w=1u l=0.28u
X263 VSS.t603 VSS.t602 VSS.t603 VSS.t455 nfet_03v3 ad=1.27p pd=6.64u as=0 ps=0 w=2.88u l=0.28u
X264 VDD IBIAS2_1.t88 IBIAS2_1.t89 VDD.t584 pfet_03v3 ad=0.78p pd=3.52u as=0.78p ps=3.52u w=3u l=0.28u
X265 VOUT_P IBIAS2_1.t213 VDD.t460 VDD.t177 pfet_03v3 ad=0.78p pd=3.52u as=0.78p ps=3.52u w=3u l=0.28u
X266 OUT2_1 VB31.t20 IPD1.t2 VSS.t93 nfet_03v3 ad=1.27p pd=6.64u as=0.749p ps=3.4u w=2.88u l=0.28u
X267 VDD.t1189 VDD.t1190 VDD.t217 ppolyf_u r_width=1u r_length=2.3u
X268 VDD.t1420 VDD.t1419 VDD.t1420 VDD.t1272 pfet_03v3 ad=0.814p pd=3.65u as=0 ps=0 w=3.13u l=0.56u
X269 IND1 VB31.t21 OUT1_1.t2 VSS.t101 nfet_03v3 ad=1.27p pd=6.64u as=1.27p ps=6.64u w=2.88u l=0.28u
X270 VDD IBIAS2_1.t86 IBIAS2_1.t87 VDD.t88 pfet_03v3 ad=0.78p pd=3.52u as=0.78p ps=3.52u w=3u l=0.28u
X271 R7_R8_R10_C1.t3 R_1.t4 cap_mim_2f0_m4m5_noshield c_width=16u c_length=15.2u
X272 R11_1.t0 a_n6826_9705# VDD.t0 ppolyf_u r_width=1u r_length=2.3u
X273 IPD1 VOUT_OPAMP_P.t13 BD_1.t56 VDD.t783 pfet_03v3 ad=0.975p pd=4.27u as=0.975p ps=4.27u w=3.75u l=0.28u
X274 VOUT_P IBIAS2_1.t214 VDD.t461 VDD.t44 pfet_03v3 ad=0.78p pd=3.52u as=0.78p ps=3.52u w=3u l=0.28u
X275 VSS IVS_1.t22 IVS_1.t23 VSS.t364 nfet_03v3 ad=0.52p pd=2.52u as=0.52p ps=2.52u w=2u l=1u
X276 VDD IBIAS2_1.t215 VOUT_P.t179 VDD.t46 pfet_03v3 ad=0.78p pd=3.52u as=0.78p ps=3.52u w=3u l=0.28u
X277 VDD IBIAS3_1.t24 IVS_1.t75 VDD.t293 pfet_03v3 ad=0.78p pd=3.52u as=0.78p ps=3.52u w=3u l=0.28u
X278 VOUT_N IBIAS2_1.t216 VDD.t464 VDD.t52 pfet_03v3 ad=0.78p pd=3.52u as=0.78p ps=3.52u w=3u l=0.28u
X279 OUT2_1 VB31.t22 IPD1.t3 VSS.t94 nfet_03v3 ad=1.27p pd=6.64u as=0.749p ps=3.4u w=2.88u l=0.28u
X280 VDD IBIAS2_1.t84 IBIAS2_1.t85 VDD.t94 pfet_03v3 ad=0.78p pd=3.52u as=0.78p ps=3.52u w=3u l=0.28u
X281 VDD IBIAS2_1.t217 VOUT_N.t81 VDD.t406 pfet_03v3 ad=0.78p pd=3.52u as=0.78p ps=3.52u w=3u l=0.28u
X282 VDD IBIAS3_1.t25 IVS_1.t30 VDD.t293 pfet_03v3 ad=0.78p pd=3.52u as=0.78p ps=3.52u w=3u l=0.28u
X283 VDD IBIAS2_1.t218 VOUT_N.t82 VDD.t357 pfet_03v3 ad=0.78p pd=3.52u as=0.78p ps=3.52u w=3u l=0.28u
X284 IND1 VB41.t45 VSS.t237 VSS.t220 nfet_03v3 ad=0.749p pd=3.4u as=0.749p ps=3.4u w=2.88u l=0.28u
X285 VOUT_P IBIAS2_1.t219 VDD.t469 VDD.t317 pfet_03v3 ad=0.78p pd=3.52u as=0.78p ps=3.52u w=3u l=0.28u
X286 IBIAS2_1 IBIAS2_1.t82 VDD.t690 VDD.t582 pfet_03v3 ad=0.78p pd=3.52u as=0.78p ps=3.52u w=3u l=0.28u
X287 VSS VB41.t24 VB41.t25 VSS.t672 nfet_03v3 ad=0.26p pd=1.52u as=0.26p ps=1.52u w=1u l=0.28u
X288 IND1 VOUT_OPAMP_N.t13 BD_1.t70 VDD.t1044 pfet_03v3 ad=1.65p pd=8.38u as=0.975p ps=4.27u w=3.75u l=0.28u
X289 IND1 VOUT_OPAMP_N.t14 BD_1.t71 VDD.t1045 pfet_03v3 ad=1.65p pd=8.38u as=0.975p ps=4.27u w=3.75u l=0.28u
X290 VDD IBIAS2_1.t221 VOUT_N.t83 VDD.t56 pfet_03v3 ad=0.78p pd=3.52u as=0.78p ps=3.52u w=3u l=0.28u
X291 IBIAS2_1 IBIAS2_1.t80 VDD.t689 VDD.t83 pfet_03v3 ad=0.78p pd=3.52u as=0.78p ps=3.52u w=3u l=0.28u
X292 VDD.t1418 VDD.t1417 VDD.t1418 VDD.t1285 pfet_03v3 ad=1.32p pd=6.88u as=0 ps=0 w=3u l=0.28u
X293 a_n4866_9705# a_n5146_8788# VDD.t216 ppolyf_u r_width=1u r_length=2.3u
X294 IPD1 VB41.t46 VSS.t238 VSS.t208 nfet_03v3 ad=1.27p pd=6.64u as=0.749p ps=3.4u w=2.88u l=0.28u
X295 VDD IBIAS2_1.t223 VOUT_N.t84 VDD.t165 pfet_03v3 ad=0.78p pd=3.52u as=1.32p ps=6.88u w=3u l=0.28u
X296 VDD IBIAS3_1.t26 IVS_1.t31 VDD.t296 pfet_03v3 ad=0.78p pd=3.52u as=0.78p ps=3.52u w=3u l=0.28u
X297 VB21 VB21.t3 IB21.t11 VDD.t351 pfet_03v3 ad=0.13p pd=1.02u as=0.22p ps=1.88u w=0.5u l=0.28u