* NGSPICE file created from pga_res_magice_parallel_flat.ext - technology: gf180mcuC

.subckt pex_pga_res_magice_parallel A B C D E F G H VDD
X0 a_7877_692.t1 a_7597_390.t1 VDD.t12 ppolyf_u r_width=1u r_length=1u
X1 a_2277_692.t0 a_2277_390.t0 VDD.t30 ppolyf_u r_width=1u r_length=1u
X2 a_1437_n1796.t1 a_2837_n794.t1 VDD.t37 ppolyf_u r_width=1u r_length=1u
X3 C.t0 a_1997_1042.t0 VDD.t0 ppolyf_u r_width=1u r_length=1u
X4 G.t8 G.t9 VDD.t36 ppolyf_u r_width=1u r_length=1u
X5 a_3957_1344.t0 a_3957_1042.t1 VDD.t26 ppolyf_u r_width=1u r_length=1u
X6 a_7317_692.t0 a_5917_1694.t0 VDD.t21 ppolyf_u r_width=1u r_length=1u
X7 a_1437_n1796.t0 E.t3 VDD.t36 ppolyf_u r_width=1u r_length=1u
X8 a_4517_n794.t0 a_4237_n2098.t0 VDD.t20 ppolyf_u r_width=1u r_length=1u
X9 a_5917_1344.t0 a_5917_1042.t0 VDD.t8 ppolyf_u r_width=1u r_length=1u
X10 a_3957_n1796.t1 a_2557_n2098.t0 VDD.t26 ppolyf_u r_width=1u r_length=1u
X11 a_6757_692.t1 a_6757_390.t1 VDD.t39 ppolyf_u r_width=1u r_length=1u
X12 a_7597_n1144.t0 a_6477_n2098.t0 VDD.t4 ppolyf_u r_width=1u r_length=1u
X13 E.t7 a_1157_390.t3 VDD.t5 ppolyf_u r_width=1u r_length=1u
X14 a_8437_n1446.t0 a_6197_n2098.t1 VDD.t2 ppolyf_u r_width=1u r_length=1u
X15 a_4237_n1144.t1 a_4517_n1446.t1 VDD.t32 ppolyf_u r_width=1u r_length=1u
X16 G.t1 G.t2 VDD.t0 ppolyf_u r_width=1u r_length=1u
X17 a_1157_n492.t0 a_1157_n492.t1 VDD.t36 ppolyf_u r_width=1u r_length=1u
X18 a_3957_n492.t0 a_3957_n794.t0 VDD.t26 ppolyf_u r_width=1u r_length=1u
X19 a_8157_n1446.t1 a_8717_n2098.t0 VDD.t11 ppolyf_u r_width=1u r_length=1u
X20 a_5637_n492.t1 a_5917_n794.t0 VDD.t8 ppolyf_u r_width=1u r_length=1u
X21 a_1717_1694.t0 a_1717_692.t0 VDD.t34 ppolyf_u r_width=1u r_length=1u
X22 a_4517_1344.t0 a_4237_1042.t1 VDD.t32 ppolyf_u r_width=1u r_length=1u
X23 a_5357_692.t0 a_5637_390.t0 VDD.t1 ppolyf_u r_width=1u r_length=1u
X24 a_1157_n1446.t0 a_1997_n2098.t2 VDD.t0 ppolyf_u r_width=1u r_length=1u
X25 a_1717_n794.t0 a_1717_n1796.t0 VDD.t34 ppolyf_u r_width=1u r_length=1u
X26 C.t1 a_1717_n1144.t0 VDD.t34 ppolyf_u r_width=1u r_length=1u
X27 a_3677_n1446.t1 a_4237_n2098.t1 VDD.t31 ppolyf_u r_width=1u r_length=1u
X28 a_4517_n492.t1 a_4517_n794.t1 VDD.t32 ppolyf_u r_width=1u r_length=1u
X29 a_1157_1344.t1 A.t1 VDD.t5 ppolyf_u r_width=1u r_length=1u
X30 a_3677_1344.t0 a_3677_1042.t0 VDD.t27 ppolyf_u r_width=1u r_length=1u
X31 a_4517_692.t1 a_4517_390.t1 VDD.t32 ppolyf_u r_width=1u r_length=1u
X32 a_6757_n1796.t1 a_5917_n1446.t1 VDD.t39 ppolyf_u r_width=1u r_length=1u
X33 a_1997_1996.t0 a_1997_1996.t1 VDD.t7 ppolyf_u r_width=1u r_length=1u
X34 a_5637_1344.t0 a_5357_1042.t1 VDD.t1 ppolyf_u r_width=1u r_length=1u
X35 a_6757_n794.t0 a_6757_n1796.t0 VDD.t21 ppolyf_u r_width=1u r_length=1u
X36 a_3957_692.t0 a_3957_390.t0 VDD.t26 ppolyf_u r_width=1u r_length=1u
X37 a_1717_1996.t0 a_1717_1694.t1 VDD.t33 ppolyf_u r_width=1u r_length=1u
X38 B.t1 a_8997_n1796.t1 VDD.t35 ppolyf_u r_width=1u r_length=1u
X39 a_1157_n492.t2 E.t6 VDD.t5 ppolyf_u r_width=1u r_length=1u
X40 a_3677_n492.t0 a_3397_n794.t0 VDD.t27 ppolyf_u r_width=1u r_length=1u
X41 a_2277_n1796.t1 G.t3 VDD.t30 ppolyf_u r_width=1u r_length=1u
X42 a_3117_n492.t1 a_2837_n794.t0 VDD.t7 ppolyf_u r_width=1u r_length=1u
X43 a_2277_1344.t1 a_1997_1042.t1 VDD.t30 ppolyf_u r_width=1u r_length=1u
X44 a_5637_n492.t0 a_5357_n794.t0 VDD.t1 ppolyf_u r_width=1u r_length=1u
X45 a_3957_1694.t1 a_3957_692.t1 VDD.t38 ppolyf_u r_width=1u r_length=1u
X46 a_3957_n1446.t1 a_1717_n2098.t1 VDD.t38 ppolyf_u r_width=1u r_length=1u
X47 a_2277_1344.t0 a_4237_1042.t0 VDD.t31 ppolyf_u r_width=1u r_length=1u
X48 a_2837_692.t1 a_1437_1694.t1 VDD.t37 ppolyf_u r_width=1u r_length=1u
X49 a_1717_n1796.t1 a_1717_n2098.t0 VDD.t33 ppolyf_u r_width=1u r_length=1u
X50 a_6757_1344.t1 a_6477_1042.t1 VDD.t39 ppolyf_u r_width=1u r_length=1u
X51 a_5357_n1144.t1 a_4517_n1796.t1 VDD.t6 ppolyf_u r_width=1u r_length=1u
X52 a_2837_1996.t0 a_1157_390.t0 VDD.t37 ppolyf_u r_width=1u r_length=1u
X53 a_6197_n1446.t1 a_7037_n2098.t0 VDD.t18 ppolyf_u r_width=1u r_length=1u
X54 a_6757_1344.t0 a_8717_1042.t1 VDD.t11 ppolyf_u r_width=1u r_length=1u
X55 a_7597_n1144.t1 a_7877_n1446.t1 VDD.t12 ppolyf_u r_width=1u r_length=1u
X56 a_2277_n492.t0 a_2277_n794.t1 VDD.t30 ppolyf_u r_width=1u r_length=1u
X57 a_8157_n492.t1 a_9557_n2098.t1 VDD.t19 ppolyf_u r_width=1u r_length=1u
X58 a_4797_n492.t1 a_3957_n1144.t1 VDD.t38 ppolyf_u r_width=1u r_length=1u
X59 a_1717_692.t1 G.t11 VDD.t33 ppolyf_u r_width=1u r_length=1u
X60 a_2277_n492.t1 a_3677_n1144.t1 VDD.t31 ppolyf_u r_width=1u r_length=1u
X61 a_1997_1996.t2 a_1997_1996.t3 VDD.t29 ppolyf_u r_width=1u r_length=1u
X62 a_6757_n492.t1 a_6757_n794.t1 VDD.t39 ppolyf_u r_width=1u r_length=1u
X63 a_1997_1996.t4 a_1157_1344.t0 VDD.t0 ppolyf_u r_width=1u r_length=1u
X64 a_4517_1694.t0 a_5357_1042.t0 VDD.t6 ppolyf_u r_width=1u r_length=1u
X65 a_7877_1344.t0 a_7597_1042.t0 VDD.t12 ppolyf_u r_width=1u r_length=1u
X66 a_8437_1042.t0 F.t0 VDD.t2 ppolyf_u r_width=1u r_length=1u
X67 a_6757_n492.t0 a_8157_n1144.t1 VDD.t11 ppolyf_u r_width=1u r_length=1u
X68 E.t2 a_1437_1694.t0 VDD.t36 ppolyf_u r_width=1u r_length=1u
X69 VDD.t16 VDD.t17 VDD.t13 ppolyf_u r_width=1u r_length=1u
X70 a_2557_1996.t0 a_3957_1694.t0 VDD.t26 ppolyf_u r_width=1u r_length=1u
X71 a_6757_1694.t0 a_6757_692.t0 VDD.t21 ppolyf_u r_width=1u r_length=1u
X72 a_8997_1694.t1 B.t3 VDD.t35 ppolyf_u r_width=1u r_length=1u
X73 a_1997_n2098.t4 a_1997_n2098.t5 VDD.t29 ppolyf_u r_width=1u r_length=1u
X74 a_3677_n492.t1 a_5077_n2098.t0 VDD.t20 ppolyf_u r_width=1u r_length=1u
X75 a_5637_1996.t0 a_5917_1694.t1 VDD.t8 ppolyf_u r_width=1u r_length=1u
X76 a_3117_n492.t0 a_3397_n794.t1 VDD.t29 ppolyf_u r_width=1u r_length=1u
X77 VDD.t40 VDD.t41 VDD.t22 ppolyf_u r_width=1u r_length=1u
X78 a_7597_n1796.t1 a_7317_n2098.t0 VDD.t4 ppolyf_u r_width=1u r_length=1u
X79 a_2277_n794.t0 a_2277_n1796.t0 VDD.t37 ppolyf_u r_width=1u r_length=1u
X80 a_4517_n1796.t0 a_1997_n2098.t3 VDD.t32 ppolyf_u r_width=1u r_length=1u
X81 a_7597_n492.t1 a_7877_n794.t1 VDD.t12 ppolyf_u r_width=1u r_length=1u
X82 a_5077_n492.t1 a_5357_n794.t1 VDD.t6 ppolyf_u r_width=1u r_length=1u
X83 VDD.t44 VDD.t45 VDD.t13 ppolyf_u r_width=1u r_length=1u
X84 a_7877_692.t0 a_8157_390.t0 VDD.t25 ppolyf_u r_width=1u r_length=1u
X85 VDD.t50 VDD.t51 VDD.t13 ppolyf_u r_width=1u r_length=1u
X86 a_8157_n1144.t0 a_8157_n1446.t0 VDD.t25 ppolyf_u r_width=1u r_length=1u
X87 a_4517_1344.t1 a_6477_1042.t0 VDD.t3 ppolyf_u r_width=1u r_length=1u
X88 a_9557_n492.t1 F.t2 VDD.t35 ppolyf_u r_width=1u r_length=1u
X89 a_5917_n1796.t0 a_7317_n794.t1 VDD.t21 ppolyf_u r_width=1u r_length=1u
X90 B.t0 a_8717_1042.t0 VDD.t10 ppolyf_u r_width=1u r_length=1u
X91 a_7317_692.t1 a_7597_390.t0 VDD.t4 ppolyf_u r_width=1u r_length=1u
X92 a_2557_1996.t1 a_1717_1344.t1 VDD.t34 ppolyf_u r_width=1u r_length=1u
X93 a_8437_1344.t1 a_8437_1042.t1 VDD.t28 ppolyf_u r_width=1u r_length=1u
X94 VDD.t42 VDD.t43 VDD.t22 ppolyf_u r_width=1u r_length=1u
X95 a_1997_1996.t5 a_4517_1694.t1 VDD.t32 ppolyf_u r_width=1u r_length=1u
X96 a_6197_1042.t1 a_3957_390.t1 VDD.t18 ppolyf_u r_width=1u r_length=1u
X97 a_4517_n492.t0 a_5917_n1144.t0 VDD.t3 ppolyf_u r_width=1u r_length=1u
X98 a_1717_n1446.t0 a_2557_n2098.t1 VDD.t34 ppolyf_u r_width=1u r_length=1u
X99 H.t1 a_8997_n794.t0 VDD.t10 ppolyf_u r_width=1u r_length=1u
X100 a_4237_1996.t0 a_4517_692.t0 VDD.t20 ppolyf_u r_width=1u r_length=1u
X101 a_5917_1042.t1 a_4517_390.t0 VDD.t3 ppolyf_u r_width=1u r_length=1u
X102 a_6197_n1144.t0 a_6197_n1446.t0 VDD.t9 ppolyf_u r_width=1u r_length=1u
X103 D.t3 a_8437_n794.t1 VDD.t28 ppolyf_u r_width=1u r_length=1u
X104 a_6477_1996.t0 a_7597_1042.t1 VDD.t4 ppolyf_u r_width=1u r_length=1u
X105 E.t0 E.t1 VDD.t5 ppolyf_u r_width=1u r_length=1u
X106 a_6197_1694.t1 a_6197_692.t1 VDD.t18 ppolyf_u r_width=1u r_length=1u
X107 a_1997_n2098.t0 a_1997_n2098.t1 VDD.t7 ppolyf_u r_width=1u r_length=1u
X108 a_3397_1996.t1 a_3677_1694.t0 VDD.t27 ppolyf_u r_width=1u r_length=1u
X109 a_8717_1996.t1 a_8997_692.t0 VDD.t19 ppolyf_u r_width=1u r_length=1u
X110 a_2837_1996.t1 a_3117_1694.t1 VDD.t7 ppolyf_u r_width=1u r_length=1u
X111 a_5357_n1144.t0 a_5637_n1446.t1 VDD.t1 ppolyf_u r_width=1u r_length=1u
X112 a_5637_1996.t1 a_5357_1694.t1 VDD.t1 ppolyf_u r_width=1u r_length=1u
X113 a_5917_n794.t1 a_7317_n2098.t1 VDD.t21 ppolyf_u r_width=1u r_length=1u
X114 a_5077_n492.t0 a_3677_n1796.t0 VDD.t20 ppolyf_u r_width=1u r_length=1u
X115 a_5357_692.t1 a_5077_390.t0 VDD.t6 ppolyf_u r_width=1u r_length=1u
X116 D.t2 a_9557_n2098.t0 VDD.t35 ppolyf_u r_width=1u r_length=1u
X117 VDD.t23 VDD.t24 VDD.t22 ppolyf_u r_width=1u r_length=1u
X118 a_7597_n492.t0 a_7317_n794.t0 VDD.t4 ppolyf_u r_width=1u r_length=1u
X119 VDD.t14 VDD.t15 VDD.t13 ppolyf_u r_width=1u r_length=1u
X120 a_3957_n492.t1 a_6197_n1144.t1 VDD.t18 ppolyf_u r_width=1u r_length=1u
X121 a_6197_1344.t1 a_6197_1042.t0 VDD.t9 ppolyf_u r_width=1u r_length=1u
X122 a_9557_n492.t0 a_8157_n1796.t1 VDD.t19 ppolyf_u r_width=1u r_length=1u
X123 a_3957_1042.t0 a_4797_390.t0 VDD.t38 ppolyf_u r_width=1u r_length=1u
X124 G.t0 a_2277_1694.t0 VDD.t30 ppolyf_u r_width=1u r_length=1u
X125 a_1717_1996.t1 a_3957_1344.t1 VDD.t38 ppolyf_u r_width=1u r_length=1u
X126 a_8157_1344.t1 a_8157_1042.t0 VDD.t25 ppolyf_u r_width=1u r_length=1u
X127 A.t0 a_1157_n1446.t1 VDD.t5 ppolyf_u r_width=1u r_length=1u
X128 a_4237_1996.t1 a_3677_1344.t1 VDD.t31 ppolyf_u r_width=1u r_length=1u
X129 a_5917_1344.t1 a_6757_1694.t1 VDD.t39 ppolyf_u r_width=1u r_length=1u
X130 F.t3 a_9557_390.t1 VDD.t35 ppolyf_u r_width=1u r_length=1u
X131 a_3677_n1144.t0 a_3677_n1446.t0 VDD.t27 ppolyf_u r_width=1u r_length=1u
X132 a_3677_1042.t1 a_2277_390.t1 VDD.t31 ppolyf_u r_width=1u r_length=1u
X133 a_5357_n1796.t1 a_5077_n2098.t1 VDD.t6 ppolyf_u r_width=1u r_length=1u
X134 a_8717_1996.t0 a_8157_1344.t0 VDD.t11 ppolyf_u r_width=1u r_length=1u
X135 a_4797_n492.t0 a_6197_n794.t1 VDD.t9 ppolyf_u r_width=1u r_length=1u
X136 a_7597_n1796.t0 a_7877_n2098.t0 VDD.t12 ppolyf_u r_width=1u r_length=1u
X137 a_3397_692.t1 a_3677_390.t0 VDD.t27 ppolyf_u r_width=1u r_length=1u
X138 a_8157_n492.t0 a_7877_n794.t0 VDD.t25 ppolyf_u r_width=1u r_length=1u
X139 a_8437_n1144.t1 a_8437_n1446.t1 VDD.t28 ppolyf_u r_width=1u r_length=1u
X140 a_3397_1996.t0 a_3117_1694.t0 VDD.t29 ppolyf_u r_width=1u r_length=1u
X141 a_8437_1694.t1 a_8437_692.t1 VDD.t2 ppolyf_u r_width=1u r_length=1u
X142 a_8157_1042.t1 a_6757_390.t0 VDD.t11 ppolyf_u r_width=1u r_length=1u
X143 a_5077_1996.t0 a_5357_1694.t0 VDD.t6 ppolyf_u r_width=1u r_length=1u
X144 a_2837_692.t0 a_3117_390.t1 VDD.t7 ppolyf_u r_width=1u r_length=1u
X145 VDD.t52 VDD.t53 VDD.t13 ppolyf_u r_width=1u r_length=1u
X146 a_7877_1996.t0 a_7597_1694.t1 VDD.t12 ppolyf_u r_width=1u r_length=1u
X147 a_7317_1996.t1 a_5917_692.t1 VDD.t21 ppolyf_u r_width=1u r_length=1u
X148 a_3117_n1796.t1 a_3397_n2098.t1 VDD.t29 ppolyf_u r_width=1u r_length=1u
X149 a_9557_1996.t0 D.t1 VDD.t35 ppolyf_u r_width=1u r_length=1u
X150 a_1717_1042.t1 C.t2 VDD.t34 ppolyf_u r_width=1u r_length=1u
X151 VDD.t46 VDD.t47 VDD.t22 ppolyf_u r_width=1u r_length=1u
X152 F.t1 a_8437_n1144.t0 VDD.t2 ppolyf_u r_width=1u r_length=1u
X153 G.t4 G.t5 VDD.t0 ppolyf_u r_width=1u r_length=1u
X154 a_1157_n492.t3 a_2837_n2098.t1 VDD.t37 ppolyf_u r_width=1u r_length=1u
X155 a_6477_n1144.t0 a_4517_n1446.t0 VDD.t3 ppolyf_u r_width=1u r_length=1u
X156 a_8157_n1796.t0 a_7877_n2098.t1 VDD.t25 ppolyf_u r_width=1u r_length=1u
X157 a_6477_1996.t1 a_5637_1344.t1 VDD.t3 ppolyf_u r_width=1u r_length=1u
X158 a_8717_n1144.t1 B.t2 VDD.t10 ppolyf_u r_width=1u r_length=1u
X159 a_7877_1344.t1 a_8997_1694.t0 VDD.t10 ppolyf_u r_width=1u r_length=1u
X160 a_1157_390.t1 a_1157_390.t2 VDD.t36 ppolyf_u r_width=1u r_length=1u
X161 a_5917_n1144.t1 a_5917_n1446.t0 VDD.t8 ppolyf_u r_width=1u r_length=1u
X162 a_7037_1996.t1 a_8437_1694.t0 VDD.t28 ppolyf_u r_width=1u r_length=1u
X163 a_5917_692.t0 a_5637_390.t1 VDD.t8 ppolyf_u r_width=1u r_length=1u
X164 a_5077_1996.t1 a_3677_390.t1 VDD.t20 ppolyf_u r_width=1u r_length=1u
X165 a_6197_n1796.t0 a_6197_n2098.t0 VDD.t9 ppolyf_u r_width=1u r_length=1u
X166 G.t6 G.t7 VDD.t36 ppolyf_u r_width=1u r_length=1u
X167 a_7317_1996.t0 a_7597_1694.t0 VDD.t4 ppolyf_u r_width=1u r_length=1u
X168 a_3117_n1796.t0 a_2837_n2098.t0 VDD.t7 ppolyf_u r_width=1u r_length=1u
X169 a_7037_1996.t0 a_6197_1344.t0 VDD.t18 ppolyf_u r_width=1u r_length=1u
X170 a_3957_n1144.t0 a_3957_n1446.t0 VDD.t26 ppolyf_u r_width=1u r_length=1u
X171 a_9557_1996.t1 a_8157_390.t1 VDD.t19 ppolyf_u r_width=1u r_length=1u
X172 a_5357_n1796.t0 a_5637_n2098.t0 VDD.t1 ppolyf_u r_width=1u r_length=1u
X173 a_8437_n794.t0 a_8437_n1796.t0 VDD.t2 ppolyf_u r_width=1u r_length=1u
X174 VDD.t48 VDD.t49 VDD.t22 ppolyf_u r_width=1u r_length=1u
X175 VDD.t56 VDD.t57 VDD.t13 ppolyf_u r_width=1u r_length=1u
X176 a_8717_n1144.t0 a_6757_n1446.t0 VDD.t11 ppolyf_u r_width=1u r_length=1u
X177 a_6197_1996.t1 a_6197_1694.t0 VDD.t9 ppolyf_u r_width=1u r_length=1u
X178 a_7877_1996.t1 a_8157_1694.t1 VDD.t25 ppolyf_u r_width=1u r_length=1u
X179 E.t4 E.t5 VDD.t5 ppolyf_u r_width=1u r_length=1u
X180 a_6197_692.t0 a_4797_390.t1 VDD.t9 ppolyf_u r_width=1u r_length=1u
X181 a_1997_n1144.t1 C.t3 VDD.t0 ppolyf_u r_width=1u r_length=1u
X182 a_3677_n1796.t1 a_3397_n2098.t0 VDD.t27 ppolyf_u r_width=1u r_length=1u
X183 a_4237_n1144.t0 a_2277_n1446.t0 VDD.t31 ppolyf_u r_width=1u r_length=1u
X184 a_6477_n1144.t1 a_6757_n1446.t1 VDD.t39 ppolyf_u r_width=1u r_length=1u
X185 VDD.t54 VDD.t55 VDD.t22 ppolyf_u r_width=1u r_length=1u
X186 a_8437_n1796.t1 a_7037_n2098.t1 VDD.t28 ppolyf_u r_width=1u r_length=1u
X187 a_6197_1996.t0 a_8437_1344.t0 VDD.t2 ppolyf_u r_width=1u r_length=1u
X188 a_3677_1694.t1 a_5077_390.t1 VDD.t20 ppolyf_u r_width=1u r_length=1u
X189 a_1717_1344.t0 a_1717_1042.t0 VDD.t33 ppolyf_u r_width=1u r_length=1u
X190 a_8157_1694.t0 a_9557_390.t0 VDD.t19 ppolyf_u r_width=1u r_length=1u
X191 a_1997_n1144.t0 a_2277_n1446.t1 VDD.t30 ppolyf_u r_width=1u r_length=1u
X192 a_3957_n794.t1 a_3957_n1796.t0 VDD.t38 ppolyf_u r_width=1u r_length=1u
X193 a_8997_692.t1 H.t0 VDD.t10 ppolyf_u r_width=1u r_length=1u
X194 G.t10 a_1717_n794.t1 VDD.t33 ppolyf_u r_width=1u r_length=1u
X195 a_5637_n1446.t0 a_6477_n2098.t1 VDD.t3 ppolyf_u r_width=1u r_length=1u
X196 a_3397_692.t0 a_3117_390.t0 VDD.t29 ppolyf_u r_width=1u r_length=1u
X197 a_1717_n1144.t1 a_1717_n1446.t1 VDD.t33 ppolyf_u r_width=1u r_length=1u
X198 a_8997_n1796.t0 a_7877_n1446.t0 VDD.t10 ppolyf_u r_width=1u r_length=1u
X199 a_2277_1694.t1 a_2277_692.t1 VDD.t37 ppolyf_u r_width=1u r_length=1u
X200 a_6197_n794.t0 a_6197_n1796.t1 VDD.t18 ppolyf_u r_width=1u r_length=1u
X201 a_8437_692.t0 D.t0 VDD.t28 ppolyf_u r_width=1u r_length=1u
X202 a_5917_n1796.t1 a_5637_n2098.t1 VDD.t8 ppolyf_u r_width=1u r_length=1u
X203 a_8997_n794.t1 a_8717_n2098.t1 VDD.t19 ppolyf_u r_width=1u r_length=1u
R0 a_7877_692.t0 a_7877_692.t1 13.3663
R1 a_7597_390.t0 a_7597_390.t1 13.3663
R2 VDD.n353 VDD.t35 9.01689
R3 VDD.n273 VDD.t12 9.01689
R4 VDD.n140 VDD.t8 9.01689
R5 VDD.n990 VDD.t26 9.01689
R6 VDD.n852 VDD.t0 9.01689
R7 VDD.n345 VDD.t19 8.19722
R8 VDD.n261 VDD.t4 8.19722
R9 VDD.n126 VDD.t1 8.19722
R10 VDD.n978 VDD.t27 8.19722
R11 VDD.n838 VDD.t33 8.19722
R12 VDD.n736 VDD.t44 7.09079
R13 VDD.n82 VDD.t51 7.09079
R14 VDD.n536 VDD.t43 7.0013
R15 VDD.n451 VDD.t54 7.0013
R16 VDD.n507 VDD.t49 7.00054
R17 VDD.n405 VDD.t46 7.00054
R18 VDD.n514 VDD.t48 7.00019
R19 VDD.n418 VDD.t47 7.00019
R20 VDD.n521 VDD.t24 6.99979
R21 VDD.n428 VDD.t40 6.99979
R22 VDD.n529 VDD.t23 6.99941
R23 VDD.n441 VDD.t41 6.99941
R24 VDD.n543 VDD.t42 6.99677
R25 VDD.n458 VDD.t55 6.99677
R26 VDD.n729 VDD.t45 6.99412
R27 VDD.n86 VDD.t50 6.99412
R28 VDD.n753 VDD.t16 6.92009
R29 VDD.n73 VDD.t15 6.92009
R30 VDD.n745 VDD.t17 6.91844
R31 VDD.n77 VDD.t14 6.91844
R32 VDD.n50 VDD.t56 6.84254
R33 VDD.n1 VDD.t53 6.84254
R34 VDD.n50 VDD.t57 6.4095
R35 VDD.n1 VDD.t52 6.4095
R36 VDD.n364 VDD.t22 6.14804
R37 VDD.n285 VDD.t25 6.14804
R38 VDD.n163 VDD.t9 6.14804
R39 VDD.n1013 VDD.t31 6.14804
R40 VDD.n872 VDD.t30 6.14804
R41 VDD.n333 VDD.t2 5.32837
R42 VDD.n243 VDD.t21 5.32837
R43 VDD.n105 VDD.t6 5.32837
R44 VDD.n956 VDD.t29 5.32837
R45 VDD.n818 VDD.t36 5.32837
R46 VDD.n297 VDD.t28 3.27919
R47 VDD.n184 VDD.t3 3.27919
R48 VDD.n1034 VDD.t32 3.27919
R49 VDD.n890 VDD.t34 3.27919
R50 VDD.n401 VDD.n400 3.1505
R51 VDD.n464 VDD.n463 3.1505
R52 VDD.n462 VDD.n461 3.1505
R53 VDD.n460 VDD.n459 3.1505
R54 VDD.n457 VDD.n456 3.1505
R55 VDD.n455 VDD.n454 3.1505
R56 VDD.n453 VDD.n452 3.1505
R57 VDD.n450 VDD.n449 3.1505
R58 VDD.n447 VDD.n446 3.1505
R59 VDD.n444 VDD.n443 3.1505
R60 VDD.n440 VDD.n439 3.1505
R61 VDD.n437 VDD.n436 3.1505
R62 VDD.n434 VDD.n433 3.1505
R63 VDD.n431 VDD.n430 3.1505
R64 VDD.n427 VDD.n426 3.1505
R65 VDD.n424 VDD.n423 3.1505
R66 VDD.n421 VDD.n420 3.1505
R67 VDD.n417 VDD.n416 3.1505
R68 VDD.n414 VDD.n413 3.1505
R69 VDD.n411 VDD.n410 3.1505
R70 VDD.n408 VDD.n407 3.1505
R71 VDD.n404 VDD.n403 3.1505
R72 VDD.n549 VDD.n548 3.1505
R73 VDD.n547 VDD.n546 3.1505
R74 VDD.n545 VDD.n544 3.1505
R75 VDD.n542 VDD.n541 3.1505
R76 VDD.n540 VDD.n539 3.1505
R77 VDD.n538 VDD.n537 3.1505
R78 VDD.n535 VDD.n534 3.1505
R79 VDD.n533 VDD.n532 3.1505
R80 VDD.n531 VDD.n530 3.1505
R81 VDD.n529 VDD.n528 3.1505
R82 VDD.n527 VDD.n526 3.1505
R83 VDD.n525 VDD.n524 3.1505
R84 VDD.n523 VDD.n522 3.1505
R85 VDD.n520 VDD.n519 3.1505
R86 VDD.n518 VDD.n517 3.1505
R87 VDD.n516 VDD.n515 3.1505
R88 VDD.n513 VDD.n512 3.1505
R89 VDD.n511 VDD.n510 3.1505
R90 VDD.n503 VDD.n502 3.1505
R91 VDD.n501 VDD.n500 3.1505
R92 VDD.n499 VDD.n498 3.1505
R93 VDD.n497 VDD.n496 3.1505
R94 VDD.n361 VDD.n360 3.1505
R95 VDD.n357 VDD.n356 3.1505
R96 VDD.n353 VDD.n352 3.1505
R97 VDD.n349 VDD.n348 3.1505
R98 VDD.n345 VDD.n344 3.1505
R99 VDD.n341 VDD.n340 3.1505
R100 VDD.n337 VDD.n336 3.1505
R101 VDD.n333 VDD.n332 3.1505
R102 VDD.n329 VDD.n328 3.1505
R103 VDD.n325 VDD.n324 3.1505
R104 VDD.n321 VDD.n320 3.1505
R105 VDD.n317 VDD.n316 3.1505
R106 VDD.n313 VDD.n312 3.1505
R107 VDD.n309 VDD.n308 3.1505
R108 VDD.n305 VDD.n304 3.1505
R109 VDD.n301 VDD.n300 3.1505
R110 VDD.n297 VDD.n296 3.1505
R111 VDD.n293 VDD.n292 3.1505
R112 VDD.n289 VDD.n288 3.1505
R113 VDD.n285 VDD.n284 3.1505
R114 VDD.n281 VDD.n280 3.1505
R115 VDD.n277 VDD.n276 3.1505
R116 VDD.n273 VDD.n270 3.1505
R117 VDD.n267 VDD.n264 3.1505
R118 VDD.n261 VDD.n258 3.1505
R119 VDD.n255 VDD.n252 3.1505
R120 VDD.n249 VDD.n246 3.1505
R121 VDD.n243 VDD.n240 3.1505
R122 VDD.n237 VDD.n234 3.1505
R123 VDD.n231 VDD.n228 3.1505
R124 VDD.n225 VDD.n222 3.1505
R125 VDD.n219 VDD.n216 3.1505
R126 VDD.n213 VDD.n210 3.1505
R127 VDD.n204 VDD.n203 3.1505
R128 VDD.n207 VDD.n204 3.1505
R129 VDD.n196 VDD.n193 3.1505
R130 VDD.n190 VDD.n187 3.1505
R131 VDD.n181 VDD.n180 3.1505
R132 VDD.n184 VDD.n181 3.1505
R133 VDD.n175 VDD.n172 3.1505
R134 VDD.n169 VDD.n166 3.1505
R135 VDD.n160 VDD.n159 3.1505
R136 VDD.n163 VDD.n160 3.1505
R137 VDD.n151 VDD.n150 3.1505
R138 VDD.n154 VDD.n151 3.1505
R139 VDD.n144 VDD.n143 3.1505
R140 VDD.n147 VDD.n144 3.1505
R141 VDD.n137 VDD.n136 3.1505
R142 VDD.n140 VDD.n137 3.1505
R143 VDD.n130 VDD.n129 3.1505
R144 VDD.n133 VDD.n130 3.1505
R145 VDD.n126 VDD.n123 3.1505
R146 VDD.n117 VDD.n116 3.1505
R147 VDD.n120 VDD.n117 3.1505
R148 VDD.n109 VDD.n108 3.1505
R149 VDD.n112 VDD.n109 3.1505
R150 VDD.n102 VDD.n101 3.1505
R151 VDD.n105 VDD.n102 3.1505
R152 VDD.n95 VDD.n94 3.1505
R153 VDD.n98 VDD.n95 3.1505
R154 VDD.n1077 VDD.n1076 3.1505
R155 VDD.n1076 VDD.n1075 3.1505
R156 VDD.n1079 VDD.n1078 3.1505
R157 VDD.n1082 VDD.n1079 3.1505
R158 VDD.n1066 VDD.n1065 3.1505
R159 VDD.n1069 VDD.n1066 3.1505
R160 VDD.n1059 VDD.n1058 3.1505
R161 VDD.n1062 VDD.n1059 3.1505
R162 VDD.n1052 VDD.n1051 3.1505
R163 VDD.n1055 VDD.n1052 3.1505
R164 VDD.n1046 VDD.n1043 3.1505
R165 VDD.n1040 VDD.n1037 3.1505
R166 VDD.n1031 VDD.n1030 3.1505
R167 VDD.n1034 VDD.n1031 3.1505
R168 VDD.n1026 VDD.n1023 3.1505
R169 VDD.n1017 VDD.n1016 3.1505
R170 VDD.n1020 VDD.n1017 3.1505
R171 VDD.n1010 VDD.n1009 3.1505
R172 VDD.n1013 VDD.n1010 3.1505
R173 VDD.n1003 VDD.n1002 3.1505
R174 VDD.n1006 VDD.n1003 3.1505
R175 VDD.n996 VDD.n993 3.1505
R176 VDD.n990 VDD.n987 3.1505
R177 VDD.n984 VDD.n981 3.1505
R178 VDD.n975 VDD.n974 3.1505
R179 VDD.n978 VDD.n975 3.1505
R180 VDD.n968 VDD.n965 3.1505
R181 VDD.n962 VDD.n959 3.1505
R182 VDD.n956 VDD.n953 3.1505
R183 VDD.n947 VDD.n946 3.1505
R184 VDD.n950 VDD.n947 3.1505
R185 VDD.n932 VDD.n929 3.1505
R186 VDD.n926 VDD.n923 3.1505
R187 VDD.n920 VDD.n917 3.1505
R188 VDD.n914 VDD.n911 3.1505
R189 VDD.n908 VDD.n905 3.1505
R190 VDD.n902 VDD.n899 3.1505
R191 VDD.n896 VDD.n893 3.1505
R192 VDD.n890 VDD.n887 3.1505
R193 VDD.n884 VDD.n881 3.1505
R194 VDD.n878 VDD.n875 3.1505
R195 VDD.n872 VDD.n869 3.1505
R196 VDD.n863 VDD.n862 3.1505
R197 VDD.n866 VDD.n863 3.1505
R198 VDD.n858 VDD.n855 3.1505
R199 VDD.n849 VDD.n848 3.1505
R200 VDD.n852 VDD.n849 3.1505
R201 VDD.n842 VDD.n841 3.1505
R202 VDD.n845 VDD.n842 3.1505
R203 VDD.n835 VDD.n834 3.1505
R204 VDD.n838 VDD.n835 3.1505
R205 VDD.n828 VDD.n827 3.1505
R206 VDD.n831 VDD.n828 3.1505
R207 VDD.n824 VDD.n821 3.1505
R208 VDD.n818 VDD.n815 3.1505
R209 VDD.n812 VDD.n809 3.1505
R210 VDD.n806 VDD.n805 3.1505
R211 VDD.n802 VDD.n801 3.1505
R212 VDD.n798 VDD.n797 3.1505
R213 VDD.n794 VDD.n793 3.1505
R214 VDD.n789 VDD.n788 3.1505
R215 VDD.n785 VDD.n784 3.1505
R216 VDD.n781 VDD.n780 3.1505
R217 VDD.n777 VDD.n776 3.1505
R218 VDD.n373 VDD.n93 3.1505
R219 VDD.n93 VDD.n92 3.1505
R220 VDD.n779 VDD.n778 3.1505
R221 VDD.n778 VDD.n777 3.1505
R222 VDD.n783 VDD.n782 3.1505
R223 VDD.n782 VDD.n781 3.1505
R224 VDD.n787 VDD.n786 3.1505
R225 VDD.n786 VDD.n785 3.1505
R226 VDD.n791 VDD.n790 3.1505
R227 VDD.n790 VDD.n789 3.1505
R228 VDD.n796 VDD.n795 3.1505
R229 VDD.n795 VDD.n794 3.1505
R230 VDD.n800 VDD.n799 3.1505
R231 VDD.n799 VDD.n798 3.1505
R232 VDD.n804 VDD.n803 3.1505
R233 VDD.n803 VDD.n802 3.1505
R234 VDD.n808 VDD.n807 3.1505
R235 VDD.n807 VDD.n806 3.1505
R236 VDD.n814 VDD.n813 3.1505
R237 VDD.n813 VDD.n812 3.1505
R238 VDD.n820 VDD.n819 3.1505
R239 VDD.n819 VDD.n818 3.1505
R240 VDD.n826 VDD.n825 3.1505
R241 VDD.n825 VDD.n824 3.1505
R242 VDD.n833 VDD.n832 3.1505
R243 VDD.n832 VDD.n831 3.1505
R244 VDD.n840 VDD.n839 3.1505
R245 VDD.n839 VDD.n838 3.1505
R246 VDD.n847 VDD.n846 3.1505
R247 VDD.n846 VDD.n845 3.1505
R248 VDD.n854 VDD.n853 3.1505
R249 VDD.n853 VDD.n852 3.1505
R250 VDD.n860 VDD.n859 3.1505
R251 VDD.n859 VDD.n858 3.1505
R252 VDD.n868 VDD.n867 3.1505
R253 VDD.n867 VDD.n866 3.1505
R254 VDD.n874 VDD.n873 3.1505
R255 VDD.n873 VDD.n872 3.1505
R256 VDD.n880 VDD.n879 3.1505
R257 VDD.n879 VDD.n878 3.1505
R258 VDD.n886 VDD.n885 3.1505
R259 VDD.n885 VDD.n884 3.1505
R260 VDD.n892 VDD.n891 3.1505
R261 VDD.n891 VDD.n890 3.1505
R262 VDD.n898 VDD.n897 3.1505
R263 VDD.n897 VDD.n896 3.1505
R264 VDD.n904 VDD.n903 3.1505
R265 VDD.n903 VDD.n902 3.1505
R266 VDD.n910 VDD.n909 3.1505
R267 VDD.n909 VDD.n908 3.1505
R268 VDD.n916 VDD.n915 3.1505
R269 VDD.n915 VDD.n914 3.1505
R270 VDD.n922 VDD.n921 3.1505
R271 VDD.n921 VDD.n920 3.1505
R272 VDD.n928 VDD.n927 3.1505
R273 VDD.n927 VDD.n926 3.1505
R274 VDD.n934 VDD.n933 3.1505
R275 VDD.n933 VDD.n932 3.1505
R276 VDD.n952 VDD.n951 3.1505
R277 VDD.n951 VDD.n950 3.1505
R278 VDD.n958 VDD.n957 3.1505
R279 VDD.n957 VDD.n956 3.1505
R280 VDD.n964 VDD.n963 3.1505
R281 VDD.n963 VDD.n962 3.1505
R282 VDD.n970 VDD.n969 3.1505
R283 VDD.n969 VDD.n968 3.1505
R284 VDD.n980 VDD.n979 3.1505
R285 VDD.n979 VDD.n978 3.1505
R286 VDD.n986 VDD.n985 3.1505
R287 VDD.n985 VDD.n984 3.1505
R288 VDD.n992 VDD.n991 3.1505
R289 VDD.n991 VDD.n990 3.1505
R290 VDD.n998 VDD.n997 3.1505
R291 VDD.n997 VDD.n996 3.1505
R292 VDD.n1008 VDD.n1007 3.1505
R293 VDD.n1007 VDD.n1006 3.1505
R294 VDD.n1015 VDD.n1014 3.1505
R295 VDD.n1014 VDD.n1013 3.1505
R296 VDD.n1022 VDD.n1021 3.1505
R297 VDD.n1021 VDD.n1020 3.1505
R298 VDD.n1028 VDD.n1027 3.1505
R299 VDD.n1027 VDD.n1026 3.1505
R300 VDD.n1036 VDD.n1035 3.1505
R301 VDD.n1035 VDD.n1034 3.1505
R302 VDD.n1042 VDD.n1041 3.1505
R303 VDD.n1041 VDD.n1040 3.1505
R304 VDD.n1048 VDD.n1047 3.1505
R305 VDD.n1047 VDD.n1046 3.1505
R306 VDD.n1057 VDD.n1056 3.1505
R307 VDD.n1056 VDD.n1055 3.1505
R308 VDD.n1064 VDD.n1063 3.1505
R309 VDD.n1063 VDD.n1062 3.1505
R310 VDD.n1071 VDD.n1070 3.1505
R311 VDD.n1070 VDD.n1069 3.1505
R312 VDD.n1084 VDD.n1083 3.1505
R313 VDD.n1083 VDD.n1082 3.1505
R314 VDD.n1074 VDD.n0 3.1505
R315 VDD.n1075 VDD.n1074 3.1505
R316 VDD.n100 VDD.n99 3.1505
R317 VDD.n99 VDD.n98 3.1505
R318 VDD.n107 VDD.n106 3.1505
R319 VDD.n106 VDD.n105 3.1505
R320 VDD.n114 VDD.n113 3.1505
R321 VDD.n113 VDD.n112 3.1505
R322 VDD.n122 VDD.n121 3.1505
R323 VDD.n121 VDD.n120 3.1505
R324 VDD.n128 VDD.n127 3.1505
R325 VDD.n127 VDD.n126 3.1505
R326 VDD.n135 VDD.n134 3.1505
R327 VDD.n134 VDD.n133 3.1505
R328 VDD.n142 VDD.n141 3.1505
R329 VDD.n141 VDD.n140 3.1505
R330 VDD.n149 VDD.n148 3.1505
R331 VDD.n148 VDD.n147 3.1505
R332 VDD.n156 VDD.n155 3.1505
R333 VDD.n155 VDD.n154 3.1505
R334 VDD.n165 VDD.n164 3.1505
R335 VDD.n164 VDD.n163 3.1505
R336 VDD.n171 VDD.n170 3.1505
R337 VDD.n170 VDD.n169 3.1505
R338 VDD.n177 VDD.n176 3.1505
R339 VDD.n176 VDD.n175 3.1505
R340 VDD.n186 VDD.n185 3.1505
R341 VDD.n185 VDD.n184 3.1505
R342 VDD.n192 VDD.n191 3.1505
R343 VDD.n191 VDD.n190 3.1505
R344 VDD.n198 VDD.n197 3.1505
R345 VDD.n197 VDD.n196 3.1505
R346 VDD.n209 VDD.n208 3.1505
R347 VDD.n208 VDD.n207 3.1505
R348 VDD.n215 VDD.n214 3.1505
R349 VDD.n214 VDD.n213 3.1505
R350 VDD.n221 VDD.n220 3.1505
R351 VDD.n220 VDD.n219 3.1505
R352 VDD.n227 VDD.n226 3.1505
R353 VDD.n226 VDD.n225 3.1505
R354 VDD.n233 VDD.n232 3.1505
R355 VDD.n232 VDD.n231 3.1505
R356 VDD.n239 VDD.n238 3.1505
R357 VDD.n238 VDD.n237 3.1505
R358 VDD.n245 VDD.n244 3.1505
R359 VDD.n244 VDD.n243 3.1505
R360 VDD.n251 VDD.n250 3.1505
R361 VDD.n250 VDD.n249 3.1505
R362 VDD.n257 VDD.n256 3.1505
R363 VDD.n256 VDD.n255 3.1505
R364 VDD.n263 VDD.n262 3.1505
R365 VDD.n262 VDD.n261 3.1505
R366 VDD.n269 VDD.n268 3.1505
R367 VDD.n268 VDD.n267 3.1505
R368 VDD.n275 VDD.n274 3.1505
R369 VDD.n274 VDD.n273 3.1505
R370 VDD.n279 VDD.n278 3.1505
R371 VDD.n278 VDD.n277 3.1505
R372 VDD.n283 VDD.n282 3.1505
R373 VDD.n282 VDD.n281 3.1505
R374 VDD.n287 VDD.n286 3.1505
R375 VDD.n286 VDD.n285 3.1505
R376 VDD.n291 VDD.n290 3.1505
R377 VDD.n290 VDD.n289 3.1505
R378 VDD.n295 VDD.n294 3.1505
R379 VDD.n294 VDD.n293 3.1505
R380 VDD.n299 VDD.n298 3.1505
R381 VDD.n298 VDD.n297 3.1505
R382 VDD.n303 VDD.n302 3.1505
R383 VDD.n302 VDD.n301 3.1505
R384 VDD.n307 VDD.n306 3.1505
R385 VDD.n306 VDD.n305 3.1505
R386 VDD.n311 VDD.n310 3.1505
R387 VDD.n310 VDD.n309 3.1505
R388 VDD.n315 VDD.n314 3.1505
R389 VDD.n314 VDD.n313 3.1505
R390 VDD.n319 VDD.n318 3.1505
R391 VDD.n318 VDD.n317 3.1505
R392 VDD.n323 VDD.n322 3.1505
R393 VDD.n322 VDD.n321 3.1505
R394 VDD.n327 VDD.n326 3.1505
R395 VDD.n326 VDD.n325 3.1505
R396 VDD.n331 VDD.n330 3.1505
R397 VDD.n330 VDD.n329 3.1505
R398 VDD.n335 VDD.n334 3.1505
R399 VDD.n334 VDD.n333 3.1505
R400 VDD.n339 VDD.n338 3.1505
R401 VDD.n338 VDD.n337 3.1505
R402 VDD.n343 VDD.n342 3.1505
R403 VDD.n342 VDD.n341 3.1505
R404 VDD.n347 VDD.n346 3.1505
R405 VDD.n346 VDD.n345 3.1505
R406 VDD.n351 VDD.n350 3.1505
R407 VDD.n350 VDD.n349 3.1505
R408 VDD.n355 VDD.n354 3.1505
R409 VDD.n354 VDD.n353 3.1505
R410 VDD.n359 VDD.n358 3.1505
R411 VDD.n358 VDD.n357 3.1505
R412 VDD.n363 VDD.n362 3.1505
R413 VDD.n362 VDD.n361 3.1505
R414 VDD.n366 VDD.n365 3.1505
R415 VDD.n365 VDD.n364 3.1505
R416 VDD.n369 VDD.n368 3.1505
R417 VDD.n368 VDD.n367 3.1505
R418 VDD.n372 VDD.n371 3.1505
R419 VDD.n371 VDD.n370 3.1505
R420 VDD.n399 VDD.n398 3.1505
R421 VDD.n49 VDD.n48 3.1505
R422 VDD.n772 VDD.n771 3.1505
R423 VDD.n769 VDD.n768 3.1505
R424 VDD.n767 VDD.n766 3.1505
R425 VDD.n764 VDD.n763 3.1505
R426 VDD.n762 VDD.n761 3.1505
R427 VDD.n759 VDD.n758 3.1505
R428 VDD.n757 VDD.n756 3.1505
R429 VDD.n755 VDD.n754 3.1505
R430 VDD.n752 VDD.n751 3.1505
R431 VDD.n750 VDD.n749 3.1505
R432 VDD.n747 VDD.n746 3.1505
R433 VDD.n744 VDD.n743 3.1505
R434 VDD.n742 VDD.n741 3.1505
R435 VDD.n740 VDD.n739 3.1505
R436 VDD.n738 VDD.n737 3.1505
R437 VDD.n735 VDD.n734 3.1505
R438 VDD.n733 VDD.n732 3.1505
R439 VDD.n731 VDD.n730 3.1505
R440 VDD.n728 VDD.n727 3.1505
R441 VDD.n726 VDD.n725 3.1505
R442 VDD.n774 VDD.n773 3.1505
R443 VDD.n91 VDD.n90 3.1505
R444 VDD.n46 VDD.n5 3.1505
R445 VDD.n466 VDD.n465 3.1505
R446 VDD.n551 VDD.n550 3.1505
R447 VDD.n555 VDD.n553 3.1505
R448 VDD.n558 VDD.n556 3.1505
R449 VDD.n561 VDD.n559 3.1505
R450 VDD.n564 VDD.n562 3.1505
R451 VDD.n567 VDD.n565 3.1505
R452 VDD.n570 VDD.n568 3.1505
R453 VDD.n573 VDD.n571 3.1505
R454 VDD.n576 VDD.n574 3.1505
R455 VDD.n579 VDD.n577 3.1505
R456 VDD.n582 VDD.n580 3.1505
R457 VDD.n585 VDD.n583 3.1505
R458 VDD.n588 VDD.n586 3.1505
R459 VDD.n591 VDD.n589 3.1505
R460 VDD.n594 VDD.n592 3.1505
R461 VDD.n597 VDD.n595 3.1505
R462 VDD.n600 VDD.n598 3.1505
R463 VDD.n603 VDD.n601 3.1505
R464 VDD.n606 VDD.n604 3.1505
R465 VDD.n609 VDD.n607 3.1505
R466 VDD.n612 VDD.n610 3.1505
R467 VDD.n615 VDD.n613 3.1505
R468 VDD.n618 VDD.n616 3.1505
R469 VDD.n621 VDD.n619 3.1505
R470 VDD.n624 VDD.n622 3.1505
R471 VDD.n627 VDD.n625 3.1505
R472 VDD.n630 VDD.n628 3.1505
R473 VDD.n273 VDD.n272 3.1505
R474 VDD.n267 VDD.n266 3.1505
R475 VDD.n261 VDD.n260 3.1505
R476 VDD.n255 VDD.n254 3.1505
R477 VDD.n249 VDD.n248 3.1505
R478 VDD.n243 VDD.n242 3.1505
R479 VDD.n237 VDD.n236 3.1505
R480 VDD.n231 VDD.n230 3.1505
R481 VDD.n225 VDD.n224 3.1505
R482 VDD.n219 VDD.n218 3.1505
R483 VDD.n213 VDD.n212 3.1505
R484 VDD.n207 VDD.n206 3.1505
R485 VDD.n196 VDD.n195 3.1505
R486 VDD.n190 VDD.n189 3.1505
R487 VDD.n184 VDD.n183 3.1505
R488 VDD.n175 VDD.n174 3.1505
R489 VDD.n169 VDD.n168 3.1505
R490 VDD.n163 VDD.n162 3.1505
R491 VDD.n154 VDD.n153 3.1505
R492 VDD.n147 VDD.n146 3.1505
R493 VDD.n140 VDD.n139 3.1505
R494 VDD.n133 VDD.n132 3.1505
R495 VDD.n126 VDD.n125 3.1505
R496 VDD.n120 VDD.n119 3.1505
R497 VDD.n112 VDD.n111 3.1505
R498 VDD.n105 VDD.n104 3.1505
R499 VDD.n98 VDD.n97 3.1505
R500 VDD.n1075 VDD.n1073 3.1505
R501 VDD.n1082 VDD.n1081 3.1505
R502 VDD.n1069 VDD.n1068 3.1505
R503 VDD.n1062 VDD.n1061 3.1505
R504 VDD.n1055 VDD.n1054 3.1505
R505 VDD.n1046 VDD.n1045 3.1505
R506 VDD.n1040 VDD.n1039 3.1505
R507 VDD.n1034 VDD.n1033 3.1505