* NGSPICE file created from CLK_div_90_mag_flat.ext - technology: gf180mcuC

.subckt pex_CLK_div_90_mag VSS VDD RST Vdiv90 CLK
X0 a_4437_8231# CLK_div_3_mag_0.Q0.t3 CLK_div_3_mag_0.or_2_mag_0.GF_INV_MAG_1.IN VDD.t54 pfet_03v3 ad=0.416p pd=2.12u as=0.704p ps=4.08u w=1.6u l=0.28u
X1 CLK_div_10_mag_0.and2_mag_1.GF_INV_MAG_0.IN CLK_div_10_mag_0.Q2 a_12896_6955# VSS.t268 nfet_03v3 ad=0.194p pd=1.76u as=0.114p ps=0.96u w=0.44u l=0.28u
X2 CLK_div_10_mag_0.JK_FF_mag_1.nand3_mag_1.OUT CLK_div_10_mag_0.JK_FF_mag_1.nand3_mag_1.IN1 a_4898_4717# VSS.t43 nfet_03v3 ad=0.29p pd=2.2u as=0.172p ps=1.18u w=0.66u l=0.28u
X3 VDD CLK_div_10_mag_0.JK_FF_mag_1.nand3_mag_1.OUT CLK_div_10_mag_0.JK_FF_mag_1.nand3_mag_1.IN1 VDD.t223 pfet_03v3 ad=0.352p pd=2.48u as=0.208p ps=1.32u w=0.8u l=0.28u
X4 a_4174_4717# CLK_div_10_mag_0.CLK a_4014_4717# VSS.t221 nfet_03v3 ad=0.172p pd=1.18u as=0.172p ps=1.18u w=0.66u l=0.28u
X5 CLK_div_3_mag_1.JK_FF_mag_1.K CLK_div_3_mag_1.Q0.t3 VDD.t113 VDD.t112 pfet_03v3 ad=0.208p pd=1.32u as=0.352p ps=2.48u w=0.8u l=0.28u
X6 VSS CLK_div_3_mag_1.JK_FF_mag_0.nand2_mag_1.IN2 a_10363_9798# VSS.t14 nfet_03v3 ad=0.194p pd=1.76u as=0.114p ps=0.96u w=0.44u l=0.28u
X7 CLK_div_3_mag_0.Q0 CLK_div_3_mag_0.JK_FF_mag_1.K.t2 VDD.t414 VDD.t413 pfet_03v3 ad=0.208p pd=1.32u as=0.352p ps=2.48u w=0.8u l=0.28u
X8 a_11337_10895# CLK_div_3_mag_1.JK_FF_mag_0.nand3_mag_1.IN1 CLK_div_3_mag_1.JK_FF_mag_0.nand3_mag_1.OUT VSS.t11 nfet_03v3 ad=0.172p pd=1.18u as=0.29p ps=2.2u w=0.66u l=0.28u
X9 VDD CLK_div_3_mag_1.Q1.t3 CLK_div_3_mag_1.JK_FF_mag_1.nand3_mag_2.OUT VDD.t456 pfet_03v3 ad=0.208p pd=1.32u as=0.352p ps=2.48u w=0.8u l=0.28u
X10 CLK_div_3_mag_1.JK_FF_mag_0.nand2_mag_1.IN2 CLK_div_3_mag_1.JK_FF_mag_0.nand2_mag_3.IN1 VDD.t61 VDD.t60 pfet_03v3 ad=0.208p pd=1.32u as=0.352p ps=2.48u w=0.8u l=0.28u
X11 VDD CLK_div_3_mag_1.JK_FF_mag_1.QB CLK_div_3_mag_1.JK_FF_mag_1.nand3_mag_0.OUT VDD.t46 pfet_03v3 ad=0.208p pd=1.32u as=0.352p ps=2.48u w=0.8u l=0.28u
X12 VDD CLK_div_3_mag_1.or_2_mag_0.GF_INV_MAG_1.IN CLK_div_3_mag_0.CLK.t0 VDD.t440 pfet_03v3 ad=0.352p pd=2.48u as=0.352p ps=2.48u w=0.8u l=0.28u
X13 a_11496_4761# CLK_div_10_mag_0.JK_FF_mag_3.nand3_mag_1.OUT VSS.t62 VSS.t61 nfet_03v3 ad=0.114p pd=0.96u as=0.194p ps=1.76u w=0.44u l=0.28u
X14 VDD CLK_div_3_mag_1.JK_FF_mag_1.nand3_mag_1.OUT CLK_div_3_mag_1.JK_FF_mag_1.nand2_mag_4.IN2 VDD.t384 pfet_03v3 ad=0.352p pd=2.48u as=0.208p ps=1.32u w=0.8u l=0.28u
X15 VDD CLK_div_3_mag_1.JK_FF_mag_0.nand3_mag_0.OUT CLK_div_3_mag_1.JK_FF_mag_0.nand3_mag_1.IN1 VDD.t250 pfet_03v3 ad=0.352p pd=2.48u as=0.208p ps=1.32u w=0.8u l=0.28u
X16 VDD CLK_div_3_mag_1.JK_FF_mag_1.K.t2 CLK_div_3_mag_1.JK_FF_mag_0.nand3_mag_0.OUT VDD.t374 pfet_03v3 ad=0.208p pd=1.32u as=0.352p ps=2.48u w=0.8u l=0.28u
X17 CLK_div_10_mag_0.JK_FF_mag_3.QB CLK_div_10_mag_0.Q2 a_12060_4761# VSS.t267 nfet_03v3 ad=0.194p pd=1.76u as=0.114p ps=0.96u w=0.44u l=0.28u
X18 a_10363_9798# CLK_div_3_mag_1.JK_FF_mag_1.K.t3 CLK_div_3_mag_1.Q0.t1 VSS.t251 nfet_03v3 ad=0.114p pd=0.96u as=0.194p ps=1.76u w=0.44u l=0.28u
X19 VSS CLK_div_3_mag_1.JK_FF_mag_0.nand2_mag_4.IN2 a_10209_10895# VSS.t293 nfet_03v3 ad=0.194p pd=1.76u as=0.114p ps=0.96u w=0.44u l=0.28u
X20 VSS CLK_div_3_mag_1.Q1.t4 a_12215_9798# VSS.t296 nfet_03v3 ad=0.29p pd=2.2u as=0.172p ps=1.18u w=0.66u l=0.28u
X21 VSS CLK.t0 a_11779_8699# VSS.t238 nfet_03v3 ad=0.194p pd=1.76u as=0.114p ps=0.96u w=0.44u l=0.28u
X22 a_10960_6955# CLK_div_10_mag_0.Q1 VSS.t100 VSS.t99 nfet_03v3 ad=0.114p pd=0.96u as=0.194p ps=1.76u w=0.44u l=0.28u
X23 CLK_div_10_mag_0.JK_FF_mag_3.nand2_mag_3.IN1 CLK_div_10_mag_0.Q1 VSS.t98 VSS.t97 nfet_03v3 ad=0.152p pd=1.64u as=0.152p ps=1.64u w=0.22u l=0.28u
X24 VDD CLK_div_3_mag_0.Q0.t4 CLK_div_3_mag_0.JK_FF_mag_0.nand3_mag_2.OUT VDD.t51 pfet_03v3 ad=0.208p pd=1.32u as=0.352p ps=2.48u w=0.8u l=0.28u
X25 VDD CLK.t1 CLK_div_3_mag_1.JK_FF_mag_0.nand2_mag_3.IN1 VDD.t362 pfet_03v3 ad=0.352p pd=2.48u as=0.352p ps=2.48u w=0.8u l=0.28u
X26 VDD CLK_div_3_mag_1.JK_FF_mag_0.nand3_mag_1.IN1 CLK_div_3_mag_1.JK_FF_mag_0.nand2_mag_1.IN2 VDD.t11 pfet_03v3 ad=0.352p pd=2.48u as=0.208p ps=1.32u w=0.8u l=0.28u
X27 CLK_div_10_mag_0.Buffer_delayed_mag_0.Inverter_delayed_mag_0.IN CLK_div_10_mag_0.and2_mag_1.OUT VDD.t184 VDD.t183 pfet_03v3 ad=0.352p pd=2.48u as=0.352p ps=2.48u w=0.8u l=1u
X28 CLK_div_10_mag_0.JK_FF_mag_2.nand3_mag_1.IN1 CLK_div_10_mag_0.JK_FF_mag_2.nand3_mag_1.OUT a_7761_5858# VSS.t125 nfet_03v3 ad=0.194p pd=1.76u as=0.114p ps=0.96u w=0.44u l=0.28u
X29 a_5128_10895# RST.t0 a_4968_10895# VSS.t54 nfet_03v3 ad=0.172p pd=1.18u as=0.172p ps=1.18u w=0.66u l=0.28u
X30 CLK_div_3_mag_0.JK_FF_mag_1.QB CLK_div_3_mag_0.Q1.t3 VDD.t412 VDD.t411 pfet_03v3 ad=0.208p pd=1.32u as=0.352p ps=2.48u w=0.8u l=0.28u
X31 CLK_div_3_mag_1.JK_FF_mag_0.nand3_mag_1.IN1 CLK_div_3_mag_1.JK_FF_mag_0.nand3_mag_1.OUT VDD.t439 VDD.t438 pfet_03v3 ad=0.208p pd=1.32u as=0.352p ps=2.48u w=0.8u l=0.28u
X32 a_12060_4761# CLK_div_10_mag_0.JK_FF_mag_3.nand2_mag_4.IN2 VSS.t70 VSS.t69 nfet_03v3 ad=0.114p pd=0.96u as=0.194p ps=1.76u w=0.44u l=0.28u
X33 VDD CLK_div_3_mag_0.JK_FF_mag_1.nand3_mag_1.IN1 CLK_div_3_mag_0.JK_FF_mag_1.nand3_mag_1.OUT VDD.t236 pfet_03v3 ad=0.208p pd=1.32u as=0.352p ps=2.48u w=0.8u l=0.28u
X34 VSS CLK_div_3_mag_1.or_2_mag_0.GF_INV_MAG_1.IN CLK_div_3_mag_0.CLK.t1 VSS.t288 nfet_03v3 ad=0.152p pd=1.64u as=0.152p ps=1.64u w=0.22u l=0.28u
X35 CLK_div_3_mag_1.JK_FF_mag_0.nand3_mag_0.OUT CLK.t2 VDD.t366 VDD.t365 pfet_03v3 ad=0.208p pd=1.32u as=0.208p ps=1.32u w=0.8u l=0.28u
X36 a_11779_8699# CLK_div_3_mag_1.Q1.t5 CLK_div_3_mag_1.and2_mag_0.GF_INV_MAG_0.IN VSS.t238 nfet_03v3 ad=0.114p pd=0.96u as=0.194p ps=1.76u w=0.44u l=0.28u
X37 a_11906_5858# CLK_div_10_mag_0.JK_FF_mag_3.nand2_mag_1.IN2 VSS.t195 VSS.t194 nfet_03v3 ad=0.114p pd=0.96u as=0.194p ps=1.76u w=0.44u l=0.28u
X38 VDD CLK.t3 CLK_div_3_mag_1.and2_mag_0.GF_INV_MAG_0.IN VDD.t367 pfet_03v3 ad=0.352p pd=2.48u as=0.208p ps=1.32u w=0.8u l=0.28u
X39 a_7421_10895# CLK_div_3_mag_0.JK_FF_mag_1.nand2_mag_3.IN1 CLK_div_3_mag_0.JK_FF_mag_1.nand2_mag_4.IN2 VSS.t144 nfet_03v3 ad=0.114p pd=0.96u as=0.194p ps=1.76u w=0.44u l=0.28u
X40 a_7761_5858# CLK_div_10_mag_0.JK_FF_mag_2.nand3_mag_0.OUT VSS.t205 VSS.t204 nfet_03v3 ad=0.114p pd=0.96u as=0.194p ps=1.76u w=0.44u l=0.28u
X41 a_11342_5858# CLK_div_10_mag_0.JK_FF_mag_3.nand3_mag_1.IN1 VSS.t208 VSS.t207 nfet_03v3 ad=0.114p pd=0.96u as=0.194p ps=1.76u w=0.44u l=0.28u
X42 CLK_div_3_mag_1.JK_FF_mag_0.nand3_mag_2.OUT CLK.t4 VDD.t371 VDD.t370 pfet_03v3 ad=0.208p pd=1.32u as=0.208p ps=1.32u w=0.8u l=0.28u
X43 CLK_div_10_mag_0.and2_mag_1.OUT CLK_div_10_mag_0.and2_mag_1.GF_INV_MAG_0.IN VSS.t292 VSS.t291 nfet_03v3 ad=0.152p pd=1.64u as=0.152p ps=1.64u w=0.22u l=0.28u
X44 CLK_div_10_mag_0.JK_FF_mag_2.nand2_mag_1.IN2 CLK_div_10_mag_0.JK_FF_mag_2.nand2_mag_3.IN1 a_8325_5858# VSS.t81 nfet_03v3 ad=0.194p pd=1.76u as=0.114p ps=0.96u w=0.44u l=0.28u
X45 VDD RST.t1 CLK_div_10_mag_0.JK_FF_mag_0.nand3_mag_1.OUT VDD.t347 pfet_03v3 ad=0.208p pd=1.32u as=0.208p ps=1.32u w=0.8u l=0.28u
X46 CLK_div_3_mag_1.and2_mag_0.GF_INV_MAG_0.IN CLK_div_3_mag_1.Q1.t6 VDD.t460 VDD.t459 pfet_03v3 ad=0.208p pd=1.32u as=0.352p ps=2.48u w=0.8u l=0.28u
X47 VDD CLK_div_3_mag_1.JK_FF_mag_1.nand2_mag_4.IN2 CLK_div_3_mag_1.JK_FF_mag_1.QB VDD.t387 pfet_03v3 ad=0.352p pd=2.48u as=0.208p ps=1.32u w=0.8u l=0.28u
X48 CLK_div_3_mag_1.JK_FF_mag_1.nand3_mag_1.OUT RST.t2 VDD.t351 VDD.t350 pfet_03v3 ad=0.208p pd=1.32u as=0.208p ps=1.32u w=0.8u l=0.28u
X49 VDD CLK_div_3_mag_1.or_2_mag_0.IN2 a_10806_8231# VDD.t218 pfet_03v3 ad=0.704p pd=4.08u as=0.416p ps=2.12u w=1.6u l=0.28u
X50 CLK_div_10_mag_0.Q2 CLK_div_10_mag_0.JK_FF_mag_3.QB a_11906_5858# VSS.t270 nfet_03v3 ad=0.194p pd=1.76u as=0.114p ps=0.96u w=0.44u l=0.28u
X51 a_7011_9798# CLK_div_3_mag_0.JK_FF_mag_1.QB CLK_div_3_mag_0.Q1.t1 VSS.t45 nfet_03v3 ad=0.114p pd=0.96u as=0.194p ps=1.76u w=0.44u l=0.28u
X52 CLK_div_10_mag_0.JK_FF_mag_2.nand2_mag_3.IN1 CLK_div_10_mag_0.Q0 VSS.t28 VSS.t27 nfet_03v3 ad=0.152p pd=1.64u as=0.152p ps=1.64u w=0.22u l=0.28u
X53 VSS VDD.t469 a_12221_10895# VSS.t185 nfet_03v3 ad=0.29p pd=2.2u as=0.172p ps=1.18u w=0.66u l=0.28u
X54 VSS CLK_div_3_mag_0.JK_FF_mag_1.K.t3 a_8863_9798# VSS.t84 nfet_03v3 ad=0.29p pd=2.2u as=0.172p ps=1.18u w=0.66u l=0.28u
X55 CLK_div_10_mag_0.JK_FF_mag_2.nand3_mag_0.OUT CLK_div_10_mag_0.JK_FF_mag_2.K.t3 VDD.t119 VDD.t118 pfet_03v3 ad=0.208p pd=1.32u as=0.352p ps=2.48u w=0.8u l=0.28u
X56 VSS CLK_div_3_mag_0.JK_FF_mag_1.nand3_mag_1.IN1 a_7575_9798# VSS.t45 nfet_03v3 ad=0.194p pd=1.76u as=0.114p ps=0.96u w=0.44u l=0.28u
X57 VDD CLK_div_10_mag_0.JK_FF_mag_2.QB CLK_div_10_mag_0.Q1 VDD.t124 pfet_03v3 ad=0.352p pd=2.48u as=0.208p ps=1.32u w=0.8u l=0.28u
X58 CLK_div_10_mag_0.JK_FF_mag_1.nand3_mag_1.IN1 CLK_div_10_mag_0.JK_FF_mag_1.nand3_mag_1.OUT a_4744_5858# VSS.t143 nfet_03v3 ad=0.194p pd=1.76u as=0.114p ps=0.96u w=0.44u l=0.28u
X59 CLK_div_10_mag_0.JK_FF_mag_0.nand3_mag_1.OUT CLK_div_10_mag_0.JK_FF_mag_0.nand3_mag_2.OUT VDD.t254 VDD.t253 pfet_03v3 ad=0.208p pd=1.32u as=0.352p ps=2.48u w=0.8u l=0.28u
X60 VDD CLK_div_10_mag_0.Q2 CLK_div_10_mag_0.and2_mag_0.GF_INV_MAG_0.IN VDD.t400 pfet_03v3 ad=0.352p pd=2.48u as=0.208p ps=1.32u w=0.8u l=0.28u
X61 CLK_div_10_mag_0.and2_mag_0.OUT CLK_div_10_mag_0.and2_mag_0.GF_INV_MAG_0.IN VDD.t308 VDD.t307 pfet_03v3 ad=0.352p pd=2.48u as=0.352p ps=2.48u w=0.8u l=0.28u
X62 a_13949_4717# RST.t3 a_13789_4717# VSS.t232 nfet_03v3 ad=0.172p pd=1.18u as=0.172p ps=1.18u w=0.66u l=0.28u
X63 CLK_div_10_mag_0.JK_FF_mag_1.QB CLK_div_10_mag_0.JK_FF_mag_1.nand2_mag_4.IN2 VDD.t134 VDD.t133 pfet_03v3 ad=0.208p pd=1.32u as=0.352p ps=2.48u w=0.8u l=0.28u
X64 VDD CLK_div_3_mag_0.JK_FF_mag_0.nand2_mag_4.IN2 CLK_div_3_mag_0.JK_FF_mag_1.K.t1 VDD.t289 pfet_03v3 ad=0.352p pd=2.48u as=0.208p ps=1.32u w=0.8u l=0.28u
X65 CLK_div_10_mag_0.JK_FF_mag_0.nand2_mag_4.IN2 CLK_div_10_mag_0.JK_FF_mag_0.nand3_mag_1.OUT VDD.t182 VDD.t181 pfet_03v3 ad=0.208p pd=1.32u as=0.352p ps=2.48u w=0.8u l=0.28u
X66 CLK_div_10_mag_0.JK_FF_mag_0.nand3_mag_1.OUT CLK_div_10_mag_0.JK_FF_mag_0.nand3_mag_1.IN1 VDD.t205 VDD.t204 pfet_03v3 ad=0.352p pd=2.48u as=0.208p ps=1.32u w=0.8u l=0.28u
X67 CLK_div_10_mag_0.JK_FF_mag_1.nand3_mag_1.OUT CLK_div_10_mag_0.JK_FF_mag_1.nand3_mag_2.OUT VDD.t298 VDD.t297 pfet_03v3 ad=0.208p pd=1.32u as=0.352p ps=2.48u w=0.8u l=0.28u
X68 VSS CLK_div_3_mag_1.JK_FF_mag_1.nand3_mag_2.OUT a_14514_10895# VSS.t209 nfet_03v3 ad=0.29p pd=2.2u as=0.172p ps=1.18u w=0.66u l=0.28u
X69 CLK_div_3_mag_0.JK_FF_mag_1.nand3_mag_2.OUT CLK_div_3_mag_0.CLK.t2 VDD.t136 VDD.t135 pfet_03v3 ad=0.208p pd=1.32u as=0.208p ps=1.32u w=0.8u l=0.28u
X70 VSS CLK_div_3_mag_0.JK_FF_mag_1.nand2_mag_1.IN2 a_7011_9798# VSS.t45 nfet_03v3 ad=0.194p pd=1.76u as=0.114p ps=0.96u w=0.44u l=0.28u
X71 a_8863_9798# CLK_div_3_mag_0.CLK.t3 a_8703_9798# VSS.t84 nfet_03v3 ad=0.172p pd=1.18u as=0.172p ps=1.18u w=0.66u l=0.28u
X72 CLK_div_10_mag_0.nor_3_mag_0.IN3 CLK_div_10_mag_0.Buffer_delayed_mag_0.Inverter_delayed_mag_0.IN VDD.t186 VDD.t185 pfet_03v3 ad=0.352p pd=2.48u as=0.352p ps=2.48u w=0.8u l=1u
X73 VDD CLK_div_10_mag_0.Q0 CLK_div_10_mag_0.JK_FF_mag_0.nand3_mag_2.OUT VDD.t41 pfet_03v3 ad=0.208p pd=1.32u as=0.208p ps=1.32u w=0.8u l=0.28u
X74 a_7575_9798# CLK_div_3_mag_0.JK_FF_mag_1.nand2_mag_3.IN1 CLK_div_3_mag_0.JK_FF_mag_1.nand2_mag_1.IN2 VSS.t45 nfet_03v3 ad=0.114p pd=0.96u as=0.194p ps=1.76u w=0.44u l=0.28u
X75 CLK_div_10_mag_0.Q1 CLK_div_10_mag_0.JK_FF_mag_2.nand2_mag_1.IN2 VDD.t177 VDD.t176 pfet_03v3 ad=0.208p pd=1.32u as=0.352p ps=2.48u w=0.8u l=0.28u
X76 a_7037_5814# CLK_div_10_mag_0.JK_FF_mag_2.K.t4 VSS.t76 VSS.t75 nfet_03v3 ad=0.172p pd=1.18u as=0.29p ps=2.2u w=0.66u l=0.28u
X77 VDD CLK_div_3_mag_0.JK_FF_mag_1.nand3_mag_2.OUT CLK_div_3_mag_0.JK_FF_mag_1.nand3_mag_1.OUT VDD.t309 pfet_03v3 ad=0.352p pd=2.48u as=0.208p ps=1.32u w=0.8u l=0.28u
X78 a_14508_9798# CLK_div_3_mag_1.JK_FF_mag_1.nand3_mag_1.OUT CLK_div_3_mag_1.JK_FF_mag_1.nand3_mag_1.IN1 VSS.t259 nfet_03v3 ad=0.114p pd=0.96u as=0.194p ps=1.76u w=0.44u l=0.28u
X79 VDD CLK_div_10_mag_0.Q0 CLK_div_10_mag_0.JK_FF_mag_2.nand3_mag_0.OUT VDD.t38 pfet_03v3 ad=0.208p pd=1.32u as=0.208p ps=1.32u w=0.8u l=0.28u
X80 a_13789_4717# CLK_div_10_mag_0.JK_FF_mag_0.nand3_mag_2.OUT VSS.t163 VSS.t162 nfet_03v3 ad=0.172p pd=1.18u as=0.29p ps=2.2u w=0.66u l=0.28u
X81 VSS CLK_div_3_mag_1.or_2_mag_0.IN2 CLK_div_3_mag_1.or_2_mag_0.GF_INV_MAG_1.IN VSS.t72 nfet_03v3 ad=0.152p pd=1.64u as=86.8f ps=0.92u w=0.22u l=0.28u
X82 a_4738_4717# CLK_div_10_mag_0.JK_FF_mag_1.nand3_mag_2.OUT VSS.t197 VSS.t196 nfet_03v3 ad=0.172p pd=1.18u as=0.29p ps=2.2u w=0.66u l=0.28u
X83 VDD CLK_div_10_mag_0.Q0 CLK_div_10_mag_0.JK_FF_mag_1.QB VDD.t35 pfet_03v3 ad=0.352p pd=2.48u as=0.208p ps=1.32u w=0.8u l=0.28u
X84 a_15232_9798# CLK.t5 a_15072_9798# VSS.t241 nfet_03v3 ad=0.172p pd=1.18u as=0.172p ps=1.18u w=0.66u l=0.28u
X85 VDD CLK_div_3_mag_0.JK_FF_mag_1.nand3_mag_0.OUT CLK_div_3_mag_0.JK_FF_mag_1.nand3_mag_1.IN1 VDD.t427 pfet_03v3 ad=0.352p pd=2.48u as=0.208p ps=1.32u w=0.8u l=0.28u
X86 CLK_div_10_mag_0.JK_FF_mag_2.nand2_mag_1.IN2 CLK_div_10_mag_0.JK_FF_mag_2.nand3_mag_1.IN1 VDD.t79 VDD.t78 pfet_03v3 ad=0.208p pd=1.32u as=0.352p ps=2.48u w=0.8u l=0.28u
X87 CLK_div_10_mag_0.JK_FF_mag_0.nand3_mag_1.OUT CLK_div_10_mag_0.JK_FF_mag_0.nand3_mag_1.IN1 a_13949_4717# VSS.t131 nfet_03v3 ad=0.29p pd=2.2u as=0.172p ps=1.18u w=0.66u l=0.28u
X88 CLK_div_10_mag_0.JK_FF_mag_0.nand3_mag_2.OUT VDD.t286 VDD.t288 VDD.t287 pfet_03v3 ad=0.208p pd=1.32u as=0.352p ps=2.48u w=0.8u l=0.28u
X89 CLK_div_3_mag_1.JK_FF_mag_0.nand2_mag_4.IN2 CLK_div_3_mag_1.JK_FF_mag_0.nand2_mag_3.IN1 VDD.t59 VDD.t58 pfet_03v3 ad=0.208p pd=1.32u as=0.352p ps=2.48u w=0.8u l=0.28u
X90 VDD CLK_div_3_mag_0.JK_FF_mag_1.QB CLK_div_3_mag_0.JK_FF_mag_1.nand3_mag_0.OUT VDD.t304 pfet_03v3 ad=0.208p pd=1.32u as=0.352p ps=2.48u w=0.8u l=0.28u
X91 VDD CLK_div_3_mag_0.or_2_mag_0.GF_INV_MAG_1.IN CLK_div_10_mag_0.CLK VDD.t55 pfet_03v3 ad=0.352p pd=2.48u as=0.352p ps=2.48u w=0.8u l=0.28u
X92 VDD CLK_div_10_mag_0.JK_FF_mag_0.nand3_mag_1.OUT CLK_div_10_mag_0.JK_FF_mag_0.nand3_mag_1.IN1 VDD.t178 pfet_03v3 ad=0.352p pd=2.48u as=0.208p ps=1.32u w=0.8u l=0.28u
X93 a_13225_4717# CLK_div_10_mag_0.Q0 a_13065_4717# VSS.t26 nfet_03v3 ad=0.172p pd=1.18u as=0.172p ps=1.18u w=0.66u l=0.28u
X94 VDD RST.t4 CLK_div_10_mag_0.JK_FF_mag_3.nand3_mag_1.OUT VDD.t352 pfet_03v3 ad=0.208p pd=1.32u as=0.208p ps=1.32u w=0.8u l=0.28u
X95 a_10209_10895# CLK_div_3_mag_1.Q0.t4 CLK_div_3_mag_1.JK_FF_mag_1.K VSS.t71 nfet_03v3 ad=0.114p pd=0.96u as=0.194p ps=1.76u w=0.44u l=0.28u
X96 VDD VDD.t282 CLK_div_3_mag_1.JK_FF_mag_1.nand3_mag_2.OUT VDD.t283 pfet_03v3 ad=0.352p pd=2.48u as=0.208p ps=1.32u w=0.8u l=0.28u
X97 a_3994_9798# CLK_div_3_mag_0.JK_FF_mag_1.K.t4 CLK_div_3_mag_0.Q0.t2 VSS.t45 nfet_03v3 ad=0.114p pd=0.96u as=0.194p ps=1.76u w=0.44u l=0.28u
X98 CLK_div_10_mag_0.JK_FF_mag_0.nand2_mag_3.IN1 CLK_div_10_mag_0.Q0 VDD.t34 VDD.t33 pfet_03v3 ad=0.352p pd=2.48u as=0.352p ps=2.48u w=0.8u l=0.28u
X99 a_7197_5814# CLK_div_10_mag_0.Q0 a_7037_5814# VSS.t25 nfet_03v3 ad=0.172p pd=1.18u as=0.172p ps=1.18u w=0.66u l=0.28u
X100 a_15078_10895# CLK_div_3_mag_1.Q1.t7 CLK_div_3_mag_1.JK_FF_mag_1.nand3_mag_2.OUT VSS.t299 nfet_03v3 ad=0.172p pd=1.18u as=0.29p ps=2.2u w=0.66u l=0.28u
X101 CLK_div_10_mag_0.JK_FF_mag_1.nand2_mag_3.IN1 CLK_div_10_mag_0.CLK VDD.t330 VDD.t329 pfet_03v3 ad=0.352p pd=2.48u as=0.352p ps=2.48u w=0.8u l=0.28u
X102 VDD CLK_div_10_mag_0.JK_FF_mag_3.nand2_mag_3.IN1 CLK_div_10_mag_0.JK_FF_mag_3.nand2_mag_4.IN2 VDD.t65 pfet_03v3 ad=0.352p pd=2.48u as=0.208p ps=1.32u w=0.8u l=0.28u
X103 a_10927_9798# CLK_div_3_mag_1.JK_FF_mag_0.nand2_mag_3.IN1 CLK_div_3_mag_1.JK_FF_mag_0.nand2_mag_1.IN2 VSS.t38 nfet_03v3 ad=0.114p pd=0.96u as=0.194p ps=1.76u w=0.44u l=0.28u
X104 a_15072_9798# CLK_div_3_mag_1.JK_FF_mag_1.QB CLK_div_3_mag_1.JK_FF_mag_1.nand3_mag_0.OUT VSS.t30 nfet_03v3 ad=0.172p pd=1.18u as=0.29p ps=2.2u w=0.66u l=0.28u
X105 VDD CLK_div_3_mag_0.Q1.t4 CLK_div_3_mag_0.JK_FF_mag_0.nand3_mag_0.OUT VDD.t443 pfet_03v3 ad=0.352p pd=2.48u as=0.208p ps=1.32u w=0.8u l=0.28u
X106 CLK_div_10_mag_0.JK_FF_mag_1.nand3_mag_0.OUT VDD.t279 VDD.t281 VDD.t280 pfet_03v3 ad=0.208p pd=1.32u as=0.352p ps=2.48u w=0.8u l=0.28u
X107 CLK_div_10_mag_0.JK_FF_mag_0.nand3_mag_0.OUT CLK_div_10_mag_0.JK_FF_mag_2.K.t5 VDD.t121 VDD.t120 pfet_03v3 ad=0.352p pd=2.48u as=0.208p ps=1.32u w=0.8u l=0.28u
X108 CLK_div_10_mag_0.JK_FF_mag_0.nand3_mag_1.IN1 CLK_div_10_mag_0.JK_FF_mag_0.nand3_mag_0.OUT VDD.t195 VDD.t194 pfet_03v3 ad=0.208p pd=1.32u as=0.352p ps=2.48u w=0.8u l=0.28u
X109 CLK_div_10_mag_0.JK_FF_mag_3.nand3_mag_2.OUT CLK_div_10_mag_0.Q2 VDD.t399 VDD.t398 pfet_03v3 ad=0.352p pd=2.48u as=0.208p ps=1.32u w=0.8u l=0.28u
X110 VDD CLK_div_3_mag_0.JK_FF_mag_0.nand3_mag_1.IN1 CLK_div_3_mag_0.JK_FF_mag_0.nand2_mag_1.IN2 VDD.t209 pfet_03v3 ad=0.352p pd=2.48u as=0.208p ps=1.32u w=0.8u l=0.28u
X111 CLK_div_10_mag_0.JK_FF_mag_1.nand3_mag_0.OUT CLK_div_10_mag_0.JK_FF_mag_1.QB VDD.t84 VDD.t83 pfet_03v3 ad=0.352p pd=2.48u as=0.208p ps=1.32u w=0.8u l=0.28u
X112 VDD CLK_div_10_mag_0.JK_FF_mag_1.QB CLK_div_10_mag_0.Q0 VDD.t80 pfet_03v3 ad=0.352p pd=2.48u as=0.208p ps=1.32u w=0.8u l=0.28u
X113 a_13065_4717# VDD.t471 VSS.t184 VSS.t183 nfet_03v3 ad=0.172p pd=1.18u as=0.29p ps=2.2u w=0.66u l=0.28u
X114 a_10932_4717# RST.t5 a_10772_4717# VSS.t233 nfet_03v3 ad=0.172p pd=1.18u as=0.172p ps=1.18u w=0.66u l=0.28u
X115 CLK_div_10_mag_0.JK_FF_mag_2.nand2_mag_4.IN2 CLK_div_10_mag_0.JK_FF_mag_2.nand2_mag_3.IN1 a_8479_4761# VSS.t80 nfet_03v3 ad=0.194p pd=1.76u as=0.114p ps=0.96u w=0.44u l=0.28u
X116 CLK_div_10_mag_0.JK_FF_mag_3.nand3_mag_1.OUT CLK_div_10_mag_0.JK_FF_mag_3.nand3_mag_2.OUT VDD.t188 VDD.t187 pfet_03v3 ad=0.208p pd=1.32u as=0.352p ps=2.48u w=0.8u l=0.28u
X117 VSS CLK_div_3_mag_1.JK_FF_mag_1.nand3_mag_1.OUT a_13790_10895# VSS.t256 nfet_03v3 ad=0.194p pd=1.76u as=0.114p ps=0.96u w=0.44u l=0.28u
X118 VSS CLK_div_3_mag_1.JK_FF_mag_0.nand3_mag_0.OUT a_11491_9798# VSS.t159 nfet_03v3 ad=0.194p pd=1.76u as=0.114p ps=0.96u w=0.44u l=0.28u
X119 a_12055_9798# CLK_div_3_mag_1.JK_FF_mag_1.K.t4 CLK_div_3_mag_1.JK_FF_mag_0.nand3_mag_0.OUT VSS.t252 nfet_03v3 ad=0.172p pd=1.18u as=0.29p ps=2.2u w=0.66u l=0.28u
X120 CLK_div_10_mag_0.JK_FF_mag_1.nand3_mag_1.IN1 CLK_div_10_mag_0.JK_FF_mag_1.nand3_mag_0.OUT VDD.t109 VDD.t108 pfet_03v3 ad=0.208p pd=1.32u as=0.352p ps=2.48u w=0.8u l=0.28u
X121 a_9043_4761# CLK_div_10_mag_0.JK_FF_mag_2.nand2_mag_4.IN2 VSS.t104 VSS.t103 nfet_03v3 ad=0.114p pd=0.96u as=0.194p ps=1.76u w=0.44u l=0.28u
X122 CLK_div_10_mag_0.JK_FF_mag_3.nand3_mag_1.OUT CLK_div_10_mag_0.JK_FF_mag_3.nand3_mag_1.IN1 VDD.t317 VDD.t316 pfet_03v3 ad=0.352p pd=2.48u as=0.208p ps=1.32u w=0.8u l=0.28u
X123 CLK_div_3_mag_1.or_2_mag_0.GF_INV_MAG_1.IN CLK_div_3_mag_1.Q0.t5 VSS.t73 VSS.t72 nfet_03v3 ad=86.8f pd=0.92u as=0.152p ps=1.64u w=0.22u l=0.28u
X124 VDD CLK_div_3_mag_0.JK_FF_mag_0.nand3_mag_1.OUT CLK_div_3_mag_0.JK_FF_mag_0.nand2_mag_4.IN2 VDD.t342 pfet_03v3 ad=0.352p pd=2.48u as=0.208p ps=1.32u w=0.8u l=0.28u
X125 VDD VDD.t275 CLK_div_3_mag_0.JK_FF_mag_0.nand3_mag_2.OUT VDD.t276 pfet_03v3 ad=0.352p pd=2.48u as=0.208p ps=1.32u w=0.8u l=0.28u
X126 VSS CLK_div_3_mag_0.or_2_mag_0.GF_INV_MAG_1.IN CLK_div_10_mag_0.CLK VSS.t34 nfet_03v3 ad=0.152p pd=1.64u as=0.152p ps=1.64u w=0.22u l=0.28u
X127 a_5692_10895# CLK_div_3_mag_0.Q0.t5 CLK_div_3_mag_0.JK_FF_mag_0.nand3_mag_2.OUT VSS.t33 nfet_03v3 ad=0.172p pd=1.18u as=0.29p ps=2.2u w=0.66u l=0.28u
X128 VDD CLK_div_3_mag_0.JK_FF_mag_0.nand2_mag_1.IN2 CLK_div_3_mag_0.Q0.t0 VDD.t212 pfet_03v3 ad=0.352p pd=2.48u as=0.208p ps=1.32u w=0.8u l=0.28u
X129 VDD CLK_div_10_mag_0.JK_FF_mag_1.nand2_mag_3.IN1 CLK_div_10_mag_0.JK_FF_mag_1.nand2_mag_1.IN2 VDD.t334 pfet_03v3 ad=0.352p pd=2.48u as=0.208p ps=1.32u w=0.8u l=0.28u
X130 CLK_div_10_mag_0.Q0 CLK_div_10_mag_0.JK_FF_mag_1.nand2_mag_1.IN2 VDD.t426 VDD.t425 pfet_03v3 ad=0.208p pd=1.32u as=0.352p ps=2.48u w=0.8u l=0.28u
X131 a_4020_5814# VDD.t473 VSS.t182 VSS.t181 nfet_03v3 ad=0.172p pd=1.18u as=0.29p ps=2.2u w=0.66u l=0.28u
X132 CLK_div_10_mag_0.JK_FF_mag_0.nand3_mag_0.OUT CLK_div_10_mag_0.JK_FF_mag_2.K.t6 a_13231_5814# VSS.t77 nfet_03v3 ad=0.29p pd=2.2u as=0.172p ps=1.18u w=0.66u l=0.28u
X133 VSS CLK_div_3_mag_1.JK_FF_mag_0.nand3_mag_1.IN1 a_10927_9798# VSS.t8 nfet_03v3 ad=0.194p pd=1.76u as=0.114p ps=0.96u w=0.44u l=0.28u
X134 VSS CLK.t6 CLK_div_3_mag_1.JK_FF_mag_1.nand2_mag_3.IN1 VSS.t242 nfet_03v3 ad=0.152p pd=1.64u as=0.152p ps=1.64u w=0.22u l=0.28u
X135 CLK_div_3_mag_0.JK_FF_mag_0.nand2_mag_1.IN2 CLK_div_3_mag_0.JK_FF_mag_0.nand2_mag_3.IN1 VDD.t75 VDD.t74 pfet_03v3 ad=0.208p pd=1.32u as=0.352p ps=2.48u w=0.8u l=0.28u
X136 VDD CLK_div_10_mag_0.CLK CLK_div_10_mag_0.JK_FF_mag_1.nand3_mag_0.OUT VDD.t326 pfet_03v3 ad=0.208p pd=1.32u as=0.208p ps=1.32u w=0.8u l=0.28u
X137 a_10772_4717# CLK_div_10_mag_0.JK_FF_mag_3.nand3_mag_2.OUT VSS.t115 VSS.t114 nfet_03v3 ad=0.172p pd=1.18u as=0.29p ps=2.2u w=0.66u l=0.28u
X138 CLK_div_10_mag_0.JK_FF_mag_3.nand3_mag_2.OUT CLK_div_10_mag_0.Q2 a_10208_4717# VSS.t266 nfet_03v3 ad=0.29p pd=2.2u as=0.172p ps=1.18u w=0.66u l=0.28u
X139 a_8479_4761# CLK_div_10_mag_0.JK_FF_mag_2.nand3_mag_1.OUT VSS.t124 VSS.t123 nfet_03v3 ad=0.114p pd=0.96u as=0.194p ps=1.76u w=0.44u l=0.28u
X140 a_6857_10895# CLK_div_3_mag_0.Q1.t5 CLK_div_3_mag_0.JK_FF_mag_1.QB VSS.t154 nfet_03v3 ad=0.114p pd=0.96u as=0.194p ps=1.76u w=0.44u l=0.28u
X141 a_11491_9798# CLK_div_3_mag_1.JK_FF_mag_0.nand3_mag_1.OUT CLK_div_3_mag_1.JK_FF_mag_0.nand3_mag_1.IN1 VSS.t287 nfet_03v3 ad=0.114p pd=0.96u as=0.194p ps=1.76u w=0.44u l=0.28u
X142 CLK_div_10_mag_0.JK_FF_mag_1.nand3_mag_0.OUT CLK_div_10_mag_0.JK_FF_mag_1.QB a_4180_5814# VSS.t50 nfet_03v3 ad=0.29p pd=2.2u as=0.172p ps=1.18u w=0.66u l=0.28u
X143 a_7985_10895# CLK_div_3_mag_0.JK_FF_mag_1.nand3_mag_1.IN1 CLK_div_3_mag_0.JK_FF_mag_1.nand3_mag_1.OUT VSS.t148 nfet_03v3 ad=0.172p pd=1.18u as=0.29p ps=2.2u w=0.66u l=0.28u
X144 VDD CLK_div_3_mag_0.JK_FF_mag_0.nand3_mag_0.OUT CLK_div_3_mag_0.JK_FF_mag_0.nand3_mag_1.IN1 VDD.t408 pfet_03v3 ad=0.352p pd=2.48u as=0.208p ps=1.32u w=0.8u l=0.28u
X145 CLK_div_10_mag_0.JK_FF_mag_3.nand3_mag_1.OUT CLK_div_10_mag_0.JK_FF_mag_3.nand3_mag_1.IN1 a_10932_4717# VSS.t206 nfet_03v3 ad=0.29p pd=2.2u as=0.172p ps=1.18u w=0.66u l=0.28u
X146 CLK_div_10_mag_0.JK_FF_mag_2.QB CLK_div_10_mag_0.Q1 a_9043_4761# VSS.t96 nfet_03v3 ad=0.194p pd=1.76u as=0.114p ps=0.96u w=0.44u l=0.28u
X147 VDD CLK_div_3_mag_1.JK_FF_mag_0.nand3_mag_2.OUT CLK_div_3_mag_1.JK_FF_mag_0.nand3_mag_1.OUT VDD.t466 pfet_03v3 ad=0.352p pd=2.48u as=0.208p ps=1.32u w=0.8u l=0.28u
X148 a_12215_9798# CLK.t7 a_12055_9798# VSS.t245 nfet_03v3 ad=0.172p pd=1.18u as=0.172p ps=1.18u w=0.66u l=0.28u
X149 VDD CLK_div_3_mag_0.and2_mag_0.GF_INV_MAG_0.IN CLK_div_3_mag_0.or_2_mag_0.IN2 VDD.t2 pfet_03v3 ad=0.352p pd=2.48u as=0.352p ps=2.48u w=0.8u l=0.28u
X150 CLK_div_3_mag_1.JK_FF_mag_1.QB CLK_div_3_mag_1.Q1.t8 VDD.t462 VDD.t461 pfet_03v3 ad=0.208p pd=1.32u as=0.352p ps=2.48u w=0.8u l=0.28u
X151 VSS CLK_div_3_mag_0.CLK.t4 a_5410_8699# VSS.t87 nfet_03v3 ad=0.194p pd=1.76u as=0.114p ps=0.96u w=0.44u l=0.28u
X152 CLK_div_10_mag_0.and2_mag_0.GF_INV_MAG_0.IN CLK_div_10_mag_0.Q2 a_10960_6955# VSS.t265 nfet_03v3 ad=0.194p pd=1.76u as=0.114p ps=0.96u w=0.44u l=0.28u
X153 CLK_div_10_mag_0.Q1 CLK_div_10_mag_0.JK_FF_mag_2.QB a_8889_5858# VSS.t79 nfet_03v3 ad=0.194p pd=1.76u as=0.114p ps=0.96u w=0.44u l=0.28u
X154 VDD CLK_div_3_mag_1.JK_FF_mag_1.nand3_mag_1.IN1 CLK_div_3_mag_1.JK_FF_mag_1.nand3_mag_1.OUT VDD.t247 pfet_03v3 ad=0.208p pd=1.32u as=0.352p ps=2.48u w=0.8u l=0.28u
X155 a_4180_5814# CLK_div_10_mag_0.CLK a_4020_5814# VSS.t220 nfet_03v3 ad=0.172p pd=1.18u as=0.172p ps=1.18u w=0.66u l=0.28u
X156 a_12221_10895# CLK.t8 a_12061_10895# VSS.t246 nfet_03v3 ad=0.172p pd=1.18u as=0.172p ps=1.18u w=0.66u l=0.28u
X157 CLK_div_10_mag_0.JK_FF_mag_3.nand3_mag_0.OUT CLK_div_10_mag_0.JK_FF_mag_3.QB VDD.t407 VDD.t406 pfet_03v3 ad=0.352p pd=2.48u as=0.208p ps=1.32u w=0.8u l=0.28u
X158 CLK_div_10_mag_0.JK_FF_mag_0.nand2_mag_4.IN2 CLK_div_10_mag_0.JK_FF_mag_0.nand2_mag_3.IN1 a_14513_4761# VSS.t102 nfet_03v3 ad=0.194p pd=1.76u as=0.114p ps=0.96u w=0.44u l=0.28u
X159 CLK_div_10_mag_0.JK_FF_mag_1.nand2_mag_4.IN2 CLK_div_10_mag_0.JK_FF_mag_1.nand2_mag_3.IN1 a_5462_4761# VSS.t223 nfet_03v3 ad=0.194p pd=1.76u as=0.114p ps=0.96u w=0.44u l=0.28u
X160 a_8889_5858# CLK_div_10_mag_0.JK_FF_mag_2.nand2_mag_1.IN2 VSS.t106 VSS.t105 nfet_03v3 ad=0.114p pd=0.96u as=0.194p ps=1.76u w=0.44u l=0.28u
X161 VSS CLK_div_3_mag_1.JK_FF_mag_1.nand2_mag_4.IN2 a_13226_10895# VSS.t260 nfet_03v3 ad=0.194p pd=1.76u as=0.114p ps=0.96u w=0.44u l=0.28u
X162 CLK_div_3_mag_0.JK_FF_mag_1.K CLK_div_3_mag_0.Q0.t6 VDD.t50 VDD.t49 pfet_03v3 ad=0.208p pd=1.32u as=0.352p ps=2.48u w=0.8u l=0.28u
X163 VDD CLK_div_3_mag_0.CLK.t5 CLK_div_3_mag_0.and2_mag_0.GF_INV_MAG_0.IN VDD.t137 pfet_03v3 ad=0.352p pd=2.48u as=0.208p ps=1.32u w=0.8u l=0.28u
X164 a_14514_10895# RST.t6 a_14354_10895# VSS.t234 nfet_03v3 ad=0.172p pd=1.18u as=0.172p ps=1.18u w=0.66u l=0.28u
X165 VDD CLK_div_3_mag_0.Q1.t6 CLK_div_3_mag_0.JK_FF_mag_1.nand3_mag_2.OUT VDD.t299 pfet_03v3 ad=0.208p pd=1.32u as=0.352p ps=2.48u w=0.8u l=0.28u
X166 VSS CLK_div_3_mag_0.and2_mag_0.GF_INV_MAG_0.IN CLK_div_3_mag_0.or_2_mag_0.IN2 VSS.t2 nfet_03v3 ad=0.152p pd=1.64u as=0.152p ps=1.64u w=0.22u l=0.28u
X167 a_8325_5858# CLK_div_10_mag_0.JK_FF_mag_2.nand3_mag_1.IN1 VSS.t48 VSS.t47 nfet_03v3 ad=0.114p pd=0.96u as=0.194p ps=1.76u w=0.44u l=0.28u
X168 CLK_div_10_mag_0.JK_FF_mag_0.nand3_mag_1.IN1 CLK_div_10_mag_0.JK_FF_mag_0.nand3_mag_1.OUT a_13795_5858# VSS.t109 nfet_03v3 ad=0.194p pd=1.76u as=0.114p ps=0.96u w=0.44u l=0.28u
X169 Vdiv90 CLK_div_10_mag_0.Q3 VSS.t66 VSS.t65 nfet_03v3 ad=0.152p pd=1.64u as=86.8f ps=0.92u w=0.22u l=0.28u
X170 a_5462_4761# CLK_div_10_mag_0.JK_FF_mag_1.nand3_mag_1.OUT VSS.t142 VSS.t141 nfet_03v3 ad=0.114p pd=0.96u as=0.194p ps=1.76u w=0.44u l=0.28u
X171 CLK_div_10_mag_0.JK_FF_mag_3.nand3_mag_0.OUT CLK_div_10_mag_0.JK_FF_mag_3.QB a_10214_5814# VSS.t269 nfet_03v3 ad=0.29p pd=2.2u as=0.172p ps=1.18u w=0.66u l=0.28u
X172 CLK_div_3_mag_0.JK_FF_mag_1.nand3_mag_1.OUT RST.t7 VDD.t356 VDD.t355 pfet_03v3 ad=0.208p pd=1.32u as=0.208p ps=1.32u w=0.8u l=0.28u
X173 VSS CLK.t9 CLK_div_3_mag_1.JK_FF_mag_0.nand2_mag_3.IN1 VSS.t247 nfet_03v3 ad=0.152p pd=1.64u as=0.152p ps=1.64u w=0.22u l=0.28u
X174 VSS CLK_div_3_mag_0.JK_FF_mag_0.nand2_mag_4.IN2 a_3840_10895# VSS.t188 nfet_03v3 ad=0.194p pd=1.76u as=0.114p ps=0.96u w=0.44u l=0.28u
X175 a_10806_8231# CLK_div_3_mag_1.Q0.t6 CLK_div_3_mag_1.or_2_mag_0.GF_INV_MAG_1.IN VDD.t114 pfet_03v3 ad=0.416p pd=2.12u as=0.704p ps=4.08u w=1.6u l=0.28u
X176 a_8869_10895# CLK_div_3_mag_0.CLK.t6 a_8709_10895# VSS.t90 nfet_03v3 ad=0.172p pd=1.18u as=0.172p ps=1.18u w=0.66u l=0.28u
X177 CLK_div_10_mag_0.and2_mag_2.GF_INV_MAG_0.IN CLK_div_10_mag_0.Q2 VDD.t397 VDD.t396 pfet_03v3 ad=0.208p pd=1.32u as=0.352p ps=2.48u w=0.8u l=0.28u
X178 CLK_div_10_mag_0.Q0 CLK_div_10_mag_0.JK_FF_mag_1.QB a_5872_5858# VSS.t49 nfet_03v3 ad=0.194p pd=1.76u as=0.114p ps=0.96u w=0.44u l=0.28u
X179 a_13795_5858# CLK_div_10_mag_0.JK_FF_mag_0.nand3_mag_0.OUT VSS.t122 VSS.t121 nfet_03v3 ad=0.114p pd=0.96u as=0.194p ps=1.76u w=0.44u l=0.28u
X180 a_4744_5858# CLK_div_10_mag_0.JK_FF_mag_1.nand3_mag_0.OUT VSS.t68 VSS.t67 nfet_03v3 ad=0.114p pd=0.96u as=0.194p ps=1.76u w=0.44u l=0.28u
X181 VSS CLK_div_3_mag_0.JK_FF_mag_1.nand3_mag_2.OUT a_8145_10895# VSS.t201 nfet_03v3 ad=0.29p pd=2.2u as=0.172p ps=1.18u w=0.66u l=0.28u
X182 CLK_div_3_mag_1.JK_FF_mag_1.nand3_mag_2.OUT CLK.t10 VDD.t373 VDD.t372 pfet_03v3 ad=0.208p pd=1.32u as=0.208p ps=1.32u w=0.8u l=0.28u
X183 VDD CLK_div_10_mag_0.Q3 CLK_div_10_mag_0.JK_FF_mag_2.K.t1 VDD.t105 pfet_03v3 ad=0.352p pd=2.48u as=0.208p ps=1.32u w=0.8u l=0.28u
X184 VSS CLK_div_3_mag_0.JK_FF_mag_1.nand3_mag_0.OUT a_8139_9798# VSS.t45 nfet_03v3 ad=0.194p pd=1.76u as=0.114p ps=0.96u w=0.44u l=0.28u
X185 CLK_div_10_mag_0.and2_mag_0.OUT CLK_div_10_mag_0.and2_mag_0.GF_INV_MAG_0.IN VSS.t200 VSS.t199 nfet_03v3 ad=0.152p pd=1.64u as=0.152p ps=1.64u w=0.22u l=0.28u
X186 CLK_div_10_mag_0.JK_FF_mag_1.nand2_mag_1.IN2 CLK_div_10_mag_0.JK_FF_mag_1.nand2_mag_3.IN1 a_5308_5858# VSS.t222 nfet_03v3 ad=0.194p pd=1.76u as=0.114p ps=0.96u w=0.44u l=0.28u
X187 a_10773_10895# CLK_div_3_mag_1.JK_FF_mag_0.nand2_mag_3.IN1 CLK_div_3_mag_1.JK_FF_mag_0.nand2_mag_4.IN2 VSS.t37 nfet_03v3 ad=0.114p pd=0.96u as=0.194p ps=1.76u w=0.44u l=0.28u
X188 VDD CLK_div_3_mag_0.JK_FF_mag_0.nand3_mag_1.IN1 CLK_div_3_mag_0.JK_FF_mag_0.nand3_mag_1.OUT VDD.t206 pfet_03v3 ad=0.208p pd=1.32u as=0.352p ps=2.48u w=0.8u l=0.28u
X189 a_8703_9798# CLK_div_3_mag_0.JK_FF_mag_1.QB CLK_div_3_mag_0.JK_FF_mag_1.nand3_mag_0.OUT VSS.t84 nfet_03v3 ad=0.172p pd=1.18u as=0.29p ps=2.2u w=0.66u l=0.28u
X190 a_5872_5858# CLK_div_10_mag_0.JK_FF_mag_1.nand2_mag_1.IN2 VSS.t278 VSS.t277 nfet_03v3 ad=0.114p pd=0.96u as=0.194p ps=1.76u w=0.44u l=0.28u
X191 VDD CLK_div_10_mag_0.Q1 CLK_div_10_mag_0.and2_mag_2.GF_INV_MAG_0.IN VDD.t165 pfet_03v3 ad=0.352p pd=2.48u as=0.208p ps=1.32u w=0.8u l=0.28u
X192 CLK_div_10_mag_0.JK_FF_mag_0.K CLK_div_10_mag_0.and2_mag_2.GF_INV_MAG_0.IN VDD.t96 VDD.t95 pfet_03v3 ad=0.352p pd=2.48u as=0.352p ps=2.48u w=0.8u l=0.28u
X193 a_14964_7257# CLK_div_10_mag_0.nor_3_mag_0.IN3 VDD.t346 VDD.t345 pfet_03v3 ad=0.624p pd=2.92u as=1.06p ps=5.68u w=2.4u l=0.28u
X194 VSS CLK_div_10_mag_0.and2_mag_0.OUT Vdiv90.t2 VSS.t126 nfet_03v3 ad=86.8f pd=0.92u as=86.8f ps=0.92u w=0.22u l=0.28u
X195 VSS VDD.t474 a_15238_10895# VSS.t178 nfet_03v3 ad=0.29p pd=2.2u as=0.172p ps=1.18u w=0.66u l=0.28u
X196 CLK_div_3_mag_0.JK_FF_mag_0.nand3_mag_2.OUT CLK_div_3_mag_0.CLK.t7 VDD.t141 VDD.t140 pfet_03v3 ad=0.208p pd=1.32u as=0.208p ps=1.32u w=0.8u l=0.28u
X197 Vdiv90 CLK_div_10_mag_0.Q3 a_15124_7257# VDD.t104 pfet_03v3 ad=1.06p pd=5.68u as=0.624p ps=2.92u w=2.4u l=0.28u
X198 CLK_div_10_mag_0.JK_FF_mag_0.nand2_mag_3.IN1 CLK_div_10_mag_0.Q0 VSS.t24 VSS.t23 nfet_03v3 ad=0.152p pd=1.64u as=0.152p ps=1.64u w=0.22u l=0.28u
X199 CLK_div_10_mag_0.JK_FF_mag_2.K CLK_div_10_mag_0.JK_FF_mag_0.nand2_mag_4.IN2 VDD.t193 VDD.t192 pfet_03v3 ad=0.208p pd=1.32u as=0.352p ps=2.48u w=0.8u l=0.28u