* NGSPICE file created from CLK_div_3_mag_flat.ext - technology: gf180mcuC

.subckt pex_CLK_div_3_mag VSS VDD Q0 Q1 RST Vdiv3 CLK
X0 JK_FF_mag_0.nand2_mag_1.IN2 JK_FF_mag_0.nand3_mag_1.IN1 VDD.t46 VDD.t45 pfet_03v3 ad=0.208p pd=1.32u as=0.352p ps=2.48u w=0.8u l=0.28u
X1 a_794_1309# CLK.t0 a_634_1309# VSS.t11 nfet_03v3 ad=0.172p pd=1.18u as=0.172p ps=1.18u w=0.66u l=0.28u
X2 a_4375_1353# JK_FF_mag_0.nand3_mag_0.OUT VSS.t27 VSS.t26 nfet_03v3 ad=0.114p pd=0.96u as=0.194p ps=1.76u w=0.44u l=0.28u
X3 Q0 JK_FF_mag_1.J.t3 a_5503_1353# VSS.t48 nfet_03v3 ad=0.194p pd=1.76u as=0.114p ps=0.96u w=0.44u l=0.28u
X4 JK_FF_mag_0.nand3_mag_2.OUT Q0.t3 VDD.t5 VDD.t4 pfet_03v3 ad=0.352p pd=2.48u as=0.208p ps=1.32u w=0.8u l=0.28u
X5 or_2_mag_0.GF_INV_MAG_1.IN Q0.t4 a_5060_2688# VDD.t109 pfet_03v3 ad=0.704p pd=4.08u as=0.416p ps=2.12u w=1.6u l=0.28u
X6 Vdiv3 or_2_mag_0.GF_INV_MAG_1.IN VDD.t1 VDD.t0 pfet_03v3 ad=0.352p pd=2.48u as=0.352p ps=2.48u w=0.8u l=0.28u
X7 JK_FF_mag_0.nand2_mag_3.IN1 CLK.t1 VDD.t105 VDD.t104 pfet_03v3 ad=0.352p pd=2.48u as=0.352p ps=2.48u w=0.8u l=0.28u
X8 JK_FF_mag_0.nand3_mag_0.OUT Q1.t3 VDD.t27 VDD.t26 pfet_03v3 ad=0.208p pd=1.32u as=0.352p ps=2.48u w=0.8u l=0.28u
X9 a_2076_256# JK_FF_mag_1.nand3_mag_1.OUT VSS.t60 VSS.t59 nfet_03v3 ad=0.114p pd=0.96u as=0.194p ps=1.76u w=0.44u l=0.28u
X10 a_5060_2688# or_2_mag_0.IN2 VDD.t11 VDD.t10 pfet_03v3 ad=0.416p pd=2.12u as=0.704p ps=4.08u w=1.6u l=0.28u
X11 VDD JK_FF_mag_0.nand2_mag_3.IN1 JK_FF_mag_0.nand2_mag_1.IN2 VDD.t31 pfet_03v3 ad=0.352p pd=2.48u as=0.208p ps=1.32u w=0.8u l=0.28u
X12 Q0 JK_FF_mag_0.nand2_mag_1.IN2 VDD.t3 VDD.t2 pfet_03v3 ad=0.208p pd=1.32u as=0.352p ps=2.48u w=0.8u l=0.28u
X13 JK_FF_mag_0.nand2_mag_4.IN2 JK_FF_mag_0.nand3_mag_1.OUT VDD.t78 VDD.t77 pfet_03v3 ad=0.208p pd=1.32u as=0.352p ps=2.48u w=0.8u l=0.28u
X14 a_788_212# CLK.t2 a_628_212# VSS.t10 nfet_03v3 ad=0.172p pd=1.18u as=0.172p ps=1.18u w=0.66u l=0.28u
X15 JK_FF_mag_0.nand3_mag_2.OUT Q0.t5 a_3805_212# VSS.t63 nfet_03v3 ad=0.29p pd=2.2u as=0.172p ps=1.18u w=0.66u l=0.28u
X16 VDD JK_FF_mag_1.nand3_mag_1.OUT JK_FF_mag_1.nand3_mag_1.IN1 VDD.t89 pfet_03v3 ad=0.352p pd=2.48u as=0.208p ps=1.32u w=0.8u l=0.28u
X17 JK_FF_mag_1.nand2_mag_1.IN2 JK_FF_mag_1.nand3_mag_1.IN1 VDD.t9 VDD.t8 pfet_03v3 ad=0.208p pd=1.32u as=0.352p ps=2.48u w=0.8u l=0.28u
X18 JK_FF_mag_1.nand3_mag_2.OUT Q1.t4 VDD.t101 VDD.t100 pfet_03v3 ad=0.352p pd=2.48u as=0.208p ps=1.32u w=0.8u l=0.28u
X19 JK_FF_mag_0.nand3_mag_2.OUT VDD.t65 VDD.t67 VDD.t66 pfet_03v3 ad=0.208p pd=1.32u as=0.352p ps=2.48u w=0.8u l=0.28u
X20 VDD Q0.t6 JK_FF_mag_1.J.t2 VDD.t97 pfet_03v3 ad=0.352p pd=2.48u as=0.208p ps=1.32u w=0.8u l=0.28u
X21 JK_FF_mag_1.QB Q1.t5 a_2640_256# VSS.t66 nfet_03v3 ad=0.194p pd=1.76u as=0.114p ps=0.96u w=0.44u l=0.28u
X22 JK_FF_mag_1.nand3_mag_0.OUT JK_FF_mag_1.QB VDD.t56 VDD.t55 pfet_03v3 ad=0.352p pd=2.48u as=0.208p ps=1.32u w=0.8u l=0.28u
X23 JK_FF_mag_1.nand3_mag_1.IN1 JK_FF_mag_1.nand3_mag_0.OUT VDD.t42 VDD.t41 pfet_03v3 ad=0.208p pd=1.32u as=0.352p ps=2.48u w=0.8u l=0.28u
X24 VDD JK_FF_mag_1.nand2_mag_3.IN1 JK_FF_mag_1.nand2_mag_1.IN2 VDD.t18 pfet_03v3 ad=0.352p pd=2.48u as=0.208p ps=1.32u w=0.8u l=0.28u
X25 VDD RST.t0 JK_FF_mag_1.nand3_mag_1.OUT VDD.t23 pfet_03v3 ad=0.208p pd=1.32u as=0.208p ps=1.32u w=0.8u l=0.28u
X26 JK_FF_mag_1.nand2_mag_4.IN2 JK_FF_mag_1.nand2_mag_3.IN1 a_2076_256# VSS.t22 nfet_03v3 ad=0.194p pd=1.76u as=0.114p ps=0.96u w=0.44u l=0.28u
X27 a_5657_256# JK_FF_mag_0.nand2_mag_4.IN2 VSS.t55 VSS.t54 nfet_03v3 ad=0.114p pd=0.96u as=0.194p ps=1.76u w=0.44u l=0.28u
X28 VDD CLK.t3 JK_FF_mag_1.nand3_mag_0.OUT VDD.t94 pfet_03v3 ad=0.208p pd=1.32u as=0.208p ps=1.32u w=0.8u l=0.28u
X29 JK_FF_mag_0.nand3_mag_1.OUT JK_FF_mag_0.nand3_mag_2.OUT VDD.t37 VDD.t36 pfet_03v3 ad=0.208p pd=1.32u as=0.352p ps=2.48u w=0.8u l=0.28u
X30 JK_FF_mag_1.nand3_mag_2.OUT Q1.t6 a_788_212# VSS.t30 nfet_03v3 ad=0.29p pd=2.2u as=0.172p ps=1.18u w=0.66u l=0.28u
X31 a_3645_212# VDD.t110 VSS.t47 VSS.t46 nfet_03v3 ad=0.172p pd=1.18u as=0.29p ps=2.2u w=0.66u l=0.28u
X32 JK_FF_mag_0.nand3_mag_0.OUT JK_FF_mag_1.J.t4 a_3811_1309# VSS.t14 nfet_03v3 ad=0.29p pd=2.2u as=0.172p ps=1.18u w=0.66u l=0.28u
X33 a_4939_1353# JK_FF_mag_0.nand3_mag_1.IN1 VSS.t38 VSS.t37 nfet_03v3 ad=0.114p pd=0.96u as=0.194p ps=1.76u w=0.44u l=0.28u
X34 VDD JK_FF_mag_0.nand2_mag_3.IN1 JK_FF_mag_0.nand2_mag_4.IN2 VDD.t28 pfet_03v3 ad=0.352p pd=2.48u as=0.208p ps=1.32u w=0.8u l=0.28u
X35 a_1512_212# RST.t1 a_1352_212# VSS.t23 nfet_03v3 ad=0.172p pd=1.18u as=0.172p ps=1.18u w=0.66u l=0.28u
X36 or_2_mag_0.GF_INV_MAG_1.IN or_2_mag_0.IN2 VSS.t20 VSS.t19 nfet_03v3 ad=86.8f pd=0.92u as=0.152p ps=1.64u w=0.22u l=0.28u
X37 a_634_1309# JK_FF_mag_1.J.t5 VSS.t32 VSS.t31 nfet_03v3 ad=0.172p pd=1.18u as=0.29p ps=2.2u w=0.66u l=0.28u
X38 JK_FF_mag_0.nand2_mag_1.IN2 JK_FF_mag_0.nand2_mag_3.IN1 a_4939_1353# VSS.t25 nfet_03v3 ad=0.194p pd=1.76u as=0.114p ps=0.96u w=0.44u l=0.28u
X39 a_5503_1353# JK_FF_mag_0.nand2_mag_1.IN2 VSS.t13 VSS.t12 nfet_03v3 ad=0.114p pd=0.96u as=0.194p ps=1.76u w=0.44u l=0.28u
X40 a_5093_256# JK_FF_mag_0.nand3_mag_1.OUT VSS.t51 VSS.t50 nfet_03v3 ad=0.114p pd=0.96u as=0.194p ps=1.76u w=0.44u l=0.28u
X41 JK_FF_mag_0.nand2_mag_3.IN1 CLK.t4 VSS.t9 VSS.t8 nfet_03v3 ad=0.152p pd=1.64u as=0.152p ps=1.64u w=0.22u l=0.28u
X42 a_4369_212# JK_FF_mag_0.nand3_mag_2.OUT VSS.t29 VSS.t28 nfet_03v3 ad=0.172p pd=1.18u as=0.29p ps=2.2u w=0.66u l=0.28u
X43 JK_FF_mag_1.nand3_mag_1.IN1 JK_FF_mag_1.nand3_mag_1.OUT a_1358_1353# VSS.t58 nfet_03v3 ad=0.194p pd=1.76u as=0.114p ps=0.96u w=0.44u l=0.28u
X44 a_1922_1353# JK_FF_mag_1.nand3_mag_1.IN1 VSS.t18 VSS.t17 nfet_03v3 ad=0.114p pd=0.96u as=0.194p ps=1.76u w=0.44u l=0.28u
X45 a_1358_1353# JK_FF_mag_1.nand3_mag_0.OUT VSS.t35 VSS.t34 nfet_03v3 ad=0.114p pd=0.96u as=0.194p ps=1.76u w=0.44u l=0.28u
X46 VDD RST.t2 JK_FF_mag_0.nand3_mag_1.OUT VDD.t106 pfet_03v3 ad=0.208p pd=1.32u as=0.208p ps=1.32u w=0.8u l=0.28u
X47 JK_FF_mag_1.J Q0.t7 a_5657_256# VSS.t15 nfet_03v3 ad=0.194p pd=1.76u as=0.114p ps=0.96u w=0.44u l=0.28u
X48 Vdiv3 or_2_mag_0.GF_INV_MAG_1.IN VSS.t1 VSS.t0 nfet_03v3 ad=0.152p pd=1.64u as=0.152p ps=1.64u w=0.22u l=0.28u
X49 VDD JK_FF_mag_1.QB Q1.t1 VDD.t52 pfet_03v3 ad=0.352p pd=2.48u as=0.208p ps=1.32u w=0.8u l=0.28u
X50 JK_FF_mag_1.nand2_mag_1.IN2 JK_FF_mag_1.nand2_mag_3.IN1 a_1922_1353# VSS.t21 nfet_03v3 ad=0.194p pd=1.76u as=0.114p ps=0.96u w=0.44u l=0.28u
X51 VSS Q0.t8 or_2_mag_0.GF_INV_MAG_1.IN VSS.t67 nfet_03v3 ad=0.152p pd=1.64u as=86.8f ps=0.92u w=0.22u l=0.28u
X52 Q1 JK_FF_mag_1.nand2_mag_1.IN2 VDD.t80 VDD.t79 pfet_03v3 ad=0.208p pd=1.32u as=0.352p ps=2.48u w=0.8u l=0.28u
X53 JK_FF_mag_0.nand3_mag_0.OUT JK_FF_mag_1.J.t6 VDD.t82 VDD.t81 pfet_03v3 ad=0.352p pd=2.48u as=0.208p ps=1.32u w=0.8u l=0.28u
X54 and2_mag_0.GF_INV_MAG_0.IN Q1.t7 a_4087_2452# VSS.t43 nfet_03v3 ad=0.194p pd=1.76u as=0.114p ps=0.96u w=0.44u l=0.28u
X55 a_4529_212# RST.t3 a_4369_212# VSS.t33 nfet_03v3 ad=0.172p pd=1.18u as=0.172p ps=1.18u w=0.66u l=0.28u
X56 JK_FF_mag_0.nand2_mag_4.IN2 JK_FF_mag_0.nand2_mag_3.IN1 a_5093_256# VSS.t24 nfet_03v3 ad=0.194p pd=1.76u as=0.114p ps=0.96u w=0.44u l=0.28u
X57 a_4087_2452# CLK.t5 VSS.t7 VSS.t6 nfet_03v3 ad=0.114p pd=0.96u as=0.194p ps=1.76u w=0.44u l=0.28u
X58 JK_FF_mag_1.nand2_mag_3.IN1 CLK.t6 VDD.t48 VDD.t47 pfet_03v3 ad=0.352p pd=2.48u as=0.352p ps=2.48u w=0.8u l=0.28u
X59 JK_FF_mag_1.nand3_mag_0.OUT JK_FF_mag_1.J.t7 VDD.t103 VDD.t102 pfet_03v3 ad=0.208p pd=1.32u as=0.352p ps=2.48u w=0.8u l=0.28u
X60 JK_FF_mag_1.QB JK_FF_mag_1.nand2_mag_4.IN2 VDD.t93 VDD.t92 pfet_03v3 ad=0.208p pd=1.32u as=0.352p ps=2.48u w=0.8u l=0.28u
X61 a_3811_1309# CLK.t7 a_3651_1309# VSS.t5 nfet_03v3 ad=0.172p pd=1.18u as=0.172p ps=1.18u w=0.66u l=0.28u
X62 JK_FF_mag_1.nand3_mag_2.OUT VDD.t62 VDD.t64 VDD.t63 pfet_03v3 ad=0.208p pd=1.32u as=0.352p ps=2.48u w=0.8u l=0.28u
X63 or_2_mag_0.IN2 and2_mag_0.GF_INV_MAG_0.IN VSS.t42 VSS.t41 nfet_03v3 ad=0.152p pd=1.64u as=0.152p ps=1.64u w=0.22u l=0.28u
X64 VDD CLK.t8 JK_FF_mag_0.nand3_mag_2.OUT VDD.t49 pfet_03v3 ad=0.208p pd=1.32u as=0.208p ps=1.32u w=0.8u l=0.28u
X65 JK_FF_mag_1.nand3_mag_1.OUT JK_FF_mag_1.nand3_mag_1.IN1 VDD.t7 VDD.t6 pfet_03v3 ad=0.352p pd=2.48u as=0.208p ps=1.32u w=0.8u l=0.28u
X66 Q1 JK_FF_mag_1.QB a_2486_1353# VSS.t40 nfet_03v3 ad=0.194p pd=1.76u as=0.114p ps=0.96u w=0.44u l=0.28u
X67 a_628_212# VDD.t111 VSS.t45 VSS.t44 nfet_03v3 ad=0.172p pd=1.18u as=0.29p ps=2.2u w=0.66u l=0.28u
X68 a_2486_1353# JK_FF_mag_1.nand2_mag_1.IN2 VSS.t53 VSS.t52 nfet_03v3 ad=0.114p pd=0.96u as=0.194p ps=1.76u w=0.44u l=0.28u
X69 a_3805_212# CLK.t9 a_3645_212# VSS.t4 nfet_03v3 ad=0.172p pd=1.18u as=0.172p ps=1.18u w=0.66u l=0.28u
X70 JK_FF_mag_1.nand3_mag_1.OUT JK_FF_mag_1.nand3_mag_1.IN1 a_1512_212# VSS.t16 nfet_03v3 ad=0.29p pd=2.2u as=0.172p ps=1.18u w=0.66u l=0.28u
X71 VDD CLK.t10 JK_FF_mag_0.nand3_mag_0.OUT VDD.t68 pfet_03v3 ad=0.208p pd=1.32u as=0.208p ps=1.32u w=0.8u l=0.28u
X72 JK_FF_mag_1.nand3_mag_1.OUT JK_FF_mag_1.nand3_mag_2.OUT VDD.t86 VDD.t85 pfet_03v3 ad=0.208p pd=1.32u as=0.352p ps=2.48u w=0.8u l=0.28u
X73 a_2640_256# JK_FF_mag_1.nand2_mag_4.IN2 VSS.t62 VSS.t61 nfet_03v3 ad=0.114p pd=0.96u as=0.194p ps=1.76u w=0.44u l=0.28u
X74 VDD JK_FF_mag_0.nand3_mag_1.OUT JK_FF_mag_0.nand3_mag_1.IN1 VDD.t74 pfet_03v3 ad=0.352p pd=2.48u as=0.208p ps=1.32u w=0.8u l=0.28u
X75 JK_FF_mag_0.nand3_mag_1.IN1 JK_FF_mag_0.nand3_mag_0.OUT VDD.t35 VDD.t34 pfet_03v3 ad=0.208p pd=1.32u as=0.352p ps=2.48u w=0.8u l=0.28u
X76 VDD JK_FF_mag_1.J.t8 Q0.t2 VDD.t71 pfet_03v3 ad=0.352p pd=2.48u as=0.208p ps=1.32u w=0.8u l=0.28u
X77 JK_FF_mag_1.nand2_mag_3.IN1 CLK.t11 VSS.t3 VSS.t2 nfet_03v3 ad=0.152p pd=1.64u as=0.152p ps=1.64u w=0.22u l=0.28u
X78 a_3651_1309# Q1.t8 VSS.t65 VSS.t64 nfet_03v3 ad=0.172p pd=1.18u as=0.29p ps=2.2u w=0.66u l=0.28u
X79 JK_FF_mag_1.nand2_mag_4.IN2 JK_FF_mag_1.nand3_mag_1.OUT VDD.t88 VDD.t87 pfet_03v3 ad=0.208p pd=1.32u as=0.352p ps=2.48u w=0.8u l=0.28u
X80 JK_FF_mag_0.nand3_mag_1.OUT JK_FF_mag_0.nand3_mag_1.IN1 VDD.t44 VDD.t43 pfet_03v3 ad=0.352p pd=2.48u as=0.208p ps=1.32u w=0.8u l=0.28u
X81 a_1352_212# JK_FF_mag_1.nand3_mag_2.OUT VSS.t57 VSS.t56 nfet_03v3 ad=0.172p pd=1.18u as=0.29p ps=2.2u w=0.66u l=0.28u
X82 VDD Q1.t9 JK_FF_mag_1.QB VDD.t59 pfet_03v3 ad=0.352p pd=2.48u as=0.208p ps=1.32u w=0.8u l=0.28u
X83 JK_FF_mag_0.nand3_mag_1.OUT JK_FF_mag_0.nand3_mag_1.IN1 a_4529_212# VSS.t36 nfet_03v3 ad=0.29p pd=2.2u as=0.172p ps=1.18u w=0.66u l=0.28u
X84 VDD Q1.t10 and2_mag_0.GF_INV_MAG_0.IN VDD.t38 pfet_03v3 ad=0.352p pd=2.48u as=0.208p ps=1.32u w=0.8u l=0.28u
X85 or_2_mag_0.IN2 and2_mag_0.GF_INV_MAG_0.IN VDD.t58 VDD.t57 pfet_03v3 ad=0.352p pd=2.48u as=0.352p ps=2.48u w=0.8u l=0.28u
X86 and2_mag_0.GF_INV_MAG_0.IN CLK.t12 VDD.t22 VDD.t21 pfet_03v3 ad=0.208p pd=1.32u as=0.352p ps=2.48u w=0.8u l=0.28u
X87 JK_FF_mag_1.nand3_mag_0.OUT JK_FF_mag_1.QB a_794_1309# VSS.t39 nfet_03v3 ad=0.29p pd=2.2u as=0.172p ps=1.18u w=0.66u l=0.28u
X88 JK_FF_mag_0.nand3_mag_1.IN1 JK_FF_mag_0.nand3_mag_1.OUT a_4375_1353# VSS.t49 nfet_03v3 ad=0.194p pd=1.76u as=0.114p ps=0.96u w=0.44u l=0.28u
X89 VDD CLK.t13 JK_FF_mag_1.nand3_mag_2.OUT VDD.t12 pfet_03v3 ad=0.208p pd=1.32u as=0.208p ps=1.32u w=0.8u l=0.28u
X90 VDD JK_FF_mag_1.nand2_mag_3.IN1 JK_FF_mag_1.nand2_mag_4.IN2 VDD.t15 pfet_03v3 ad=0.352p pd=2.48u as=0.208p ps=1.32u w=0.8u l=0.28u
X91 JK_FF_mag_1.J JK_FF_mag_0.nand2_mag_4.IN2 VDD.t84 VDD.t83 pfet_03v3 ad=0.208p pd=1.32u as=0.352p ps=2.48u w=0.8u l=0.28u
R0 VDD.n63 VDD.n62 11185.2
R1 VDD.t18 VDD.t79 961.905
R2 VDD.t55 VDD.t41 961.905
R3 VDD.t28 VDD.t83 765.152
R4 VDD.t43 VDD.t77 765.152
R5 VDD.t4 VDD.t36 765.152
R6 VDD.t31 VDD.t2 765.152
R7 VDD.t45 VDD.t74 765.152
R8 VDD.t81 VDD.t34 765.152
R9 VDD.t15 VDD.t92 765.152
R10 VDD.t6 VDD.t87 765.152
R11 VDD.t100 VDD.t85 765.152
R12 VDD.n62 VDD.t8 676.191
R13 VDD.n63 VDD.t102 485.714
R14 VDD.n110 VDD 429.187
R15 VDD VDD.n3 427.092
R16 VDD.t47 VDD.n63 426.44
R17 VDD.n8 VDD 420.935
R18 VDD.t26 VDD.n110 386.365
R19 VDD.t94 VDD.t55 380.952
R20 VDD.t38 VDD.n8 378.788
R21 VDD.n8 VDD.t10 322.223
R22 VDD.n3 VDD.t109 320.635
R23 VDD.t106 VDD.t43 303.031
R24 VDD.t49 VDD.t4 303.031
R25 VDD.t68 VDD.t81 303.031
R26 VDD.t23 VDD.t6 303.031
R27 VDD.t12 VDD.t100 303.031
R28 VDD.n62 VDD.t89 285.714
R29 VDD.n54 VDD.t52 242.857
R30 VDD.n56 VDD.t18 242.857
R31 VDD.t89 VDD.n58 242.857
R32 VDD.n61 VDD.t94 242.857
R33 VDD.n18 VDD.t97 193.183
R34 VDD.n20 VDD.t28 193.183
R35 VDD.n23 VDD.t106 193.183
R36 VDD.n26 VDD.t49 193.183
R37 VDD.n41 VDD.t71 193.183
R38 VDD.n42 VDD.t31 193.183
R39 VDD.n51 VDD.t74 193.183
R40 VDD.n111 VDD.t68 193.183
R41 VDD.n77 VDD.t59 193.183
R42 VDD.n79 VDD.t15 193.183
R43 VDD.n82 VDD.t23 193.183
R44 VDD.n85 VDD.t12 193.183
R45 VDD.n9 VDD.t38 193.183
R46 VDD.n7 VDD.t109 142.857
R47 VDD.t79 VDD.n54 138.095
R48 VDD.t8 VDD.n56 138.095
R49 VDD.t41 VDD.n58 138.095
R50 VDD.t102 VDD.n61 138.095
R51 VDD.t10 VDD.n7 111.112
R52 VDD.t83 VDD.n18 109.849
R53 VDD.t77 VDD.n20 109.849
R54 VDD.t36 VDD.n23 109.849
R55 VDD.n26 VDD.t66 109.849
R56 VDD.t2 VDD.n41 109.849
R57 VDD.n42 VDD.t45 109.849
R58 VDD.t34 VDD.n51 109.849
R59 VDD.n111 VDD.t26 109.849
R60 VDD.t92 VDD.n77 109.849
R61 VDD.t87 VDD.n79 109.849
R62 VDD.t85 VDD.n82 109.849
R63 VDD.n85 VDD.t63 109.849
R64 VDD.n9 VDD.t21 109.849
R65 VDD.n110 VDD.t104 59.702
R66 VDD.n3 VDD.t0 59.4064
R67 VDD.n8 VDD.t57 58.5371
R68 VDD.n88 VDD.t65 30.9379
R69 VDD.n87 VDD.t62 30.0062
R70 VDD.n88 VDD.t110 24.5101
R71 VDD.n93 VDD.t111 24.4392
R72 VDD VDD.t47 10.5649
R73 VDD.n94 VDD.n93 8.0005
R74 VDD.n90 VDD.n89 6.98838
R75 VDD.n27 VDD.n26 6.3005
R76 VDD.n30 VDD.n23 6.3005
R77 VDD.n33 VDD.n20 6.3005
R78 VDD.n36 VDD.n18 6.3005
R79 VDD.n65 VDD.n61 6.3005
R80 VDD.n68 VDD.n58 6.3005
R81 VDD.n71 VDD.n56 6.3005
R82 VDD.n74 VDD.n54 6.3005
R83 VDD.n97 VDD.n85 6.3005
R84 VDD.n100 VDD.n82 6.3005
R85 VDD.n103 VDD.n79 6.3005
R86 VDD.n106 VDD.n77 6.3005
R87 VDD.n51 VDD.n50 6.3005
R88 VDD.n43 VDD.n42 6.3005
R89 VDD.n41 VDD.n40 6.3005
R90 VDD.n7 VDD.n6 6.3005
R91 VDD.n10 VDD.n9 6.3005
R92 VDD.n112 VDD.n111 6.3005
R93 VDD.n27 VDD.t67 5.213
R94 VDD VDD.t48 5.16454
R95 VDD.n49 VDD.t35 5.13287
R96 VDD.n45 VDD.n13 5.13287
R97 VDD.n44 VDD.t46 5.13287
R98 VDD.n15 VDD.n14 5.13287
R99 VDD.n39 VDD.t3 5.13287
R100 VDD.n38 VDD.n16 5.13287
R101 VDD.n29 VDD.t37 5.13287
R102 VDD.n32 VDD.t78 5.13287
R103 VDD.n34 VDD.n19 5.13287
R104 VDD.n35 VDD.t84 5.13287
R105 VDD.n37 VDD.n17 5.13287
R106 VDD.n64 VDD.t103 5.13287
R107 VDD.n67 VDD.t42 5.13287
R108 VDD.n69 VDD.n57 5.13287
R109 VDD.n70 VDD.t9 5.13287
R110 VDD.n72 VDD.n55 5.13287
R111 VDD.n73 VDD.t80 5.13287
R112 VDD.n75 VDD.n53 5.13287
R113 VDD.n99 VDD.t86 5.13287
R114 VDD.n102 VDD.t88 5.13287
R115 VDD.n104 VDD.n78 5.13287
R116 VDD.n105 VDD.t93 5.13287
R117 VDD.n107 VDD.n76 5.13287
R118 VDD.n52 VDD.t27 5.13287
R119 VDD.n11 VDD.t22 5.13287
R120 VDD.n1 VDD.n0 5.13287
R121 VDD.n109 VDD.t105 5.09407
R122 VDD.n4 VDD.t1 5.09407
R123 VDD.n2 VDD.t58 5.09407
R124 VDD.n96 VDD.t64 4.8755
R125 VDD.n90 VDD.n86 4.51383
R126 VDD.n93 VDD.n92 4.5005
R127 VDD.n5 VDD.t11 4.12326
R128 VDD.n91 VDD.n87 3.61662
R129 VDD.n48 VDD.n47 2.85787
R130 VDD.n28 VDD.n25 2.85787
R131 VDD.n31 VDD.n22 2.85787
R132 VDD.n66 VDD.n60 2.85787
R133 VDD.n98 VDD.n84 2.85787
R134 VDD.n101 VDD.n81 2.85787
R135 VDD.n47 VDD.t82 2.2755
R136 VDD.n47 VDD.n46 2.2755
R137 VDD.n25 VDD.t5 2.2755
R138 VDD.n25 VDD.n24 2.2755
R139 VDD.n22 VDD.t44 2.2755
R140 VDD.n22 VDD.n21 2.2755
R141 VDD.n60 VDD.t56 2.2755
R142 VDD.n60 VDD.n59 2.2755
R143 VDD.n84 VDD.t101 2.2755
R144 VDD.n84 VDD.n83 2.2755
R145 VDD.n81 VDD.t7 2.2755
R146 VDD.n81 VDD.n80 2.2755
R147 VDD.n89 VDD.n88 2.11318
R148 VDD.n64 VDD 1.77285
R149 VDD VDD.n52 1.77285
R150 VDD.n92 VDD.n90 1.54785
R151 VDD.n38 VDD.n37 1.16167
R152 VDD.n108 VDD.n107 1.07428
R153 VDD.n93 VDD.n87 0.840632
R154 VDD.n12 VDD 0.468962
R155 VDD.n6 VDD.n4 0.388218
R156 VDD.n97 VDD.n96 0.337997
R157 VDD.n96 VDD.n95 0.328132
R158 VDD VDD.n11 0.273757
R159 VDD.n5 VDD 0.269151
R160 VDD.n32 VDD.n31 0.233919
R161 VDD.n29 VDD.n28 0.233919
R162 VDD.n102 VDD.n101 0.233919
R163 VDD.n99 VDD.n98 0.233919
R164 VDD.n2 VDD.n1 0.170231
R165 VDD.n108 VDD.n75 0.143501
R166 VDD.n35 VDD.n34 0.141016
R167 VDD.n73 VDD.n72 0.141016
R168 VDD.n70 VDD.n69 0.141016
R169 VDD.n105 VDD.n104 0.141016
R170 VDD.n39 VDD.n15 0.141016
R171 VDD.n45 VDD.n44 0.141016
R172 VDD.n109 VDD.n108 0.138896
R173 VDD.n67 VDD 0.122435
R174 VDD.n49 VDD 0.122435
R175 VDD VDD.n66 0.111984
R176 VDD VDD.n48 0.111984
R177 VDD VDD.n5 0.110164
R178 VDD.n37 VDD.n36 0.107339
R179 VDD.n34 VDD.n33 0.107339
R180 VDD.n75 VDD.n74 0.107339
R181 VDD.n72 VDD.n71 0.107339
R182 VDD.n69 VDD.n68 0.107339
R183 VDD.n107 VDD.n106 0.107339
R184 VDD.n104 VDD.n103 0.107339
R185 VDD.n40 VDD.n38 0.107339
R186 VDD.n43 VDD.n15 0.107339
R187 VDD.n50 VDD.n45 0.107339
R188 VDD.n10 VDD.n1 0.107339
R189 VDD.n89 VDD 0.106795
R190 VDD.n31 VDD 0.106177
R191 VDD.n28 VDD 0.106177
R192 VDD.n66 VDD 0.106177
R193 VDD.n101 VDD 0.106177
R194 VDD.n98 VDD 0.106177
R195 VDD.n30 VDD.n29 0.080629
R196 VDD.n65 VDD.n64 0.080629
R197 VDD.n100 VDD.n99 0.080629
R198 VDD VDD.n35 0.0794677
R199 VDD VDD.n32 0.0794677
R200 VDD VDD.n73 0.0794677
R201 VDD VDD.n70 0.0794677
R202 VDD VDD.n67 0.0794677
R203 VDD VDD.n105 0.0794677
R204 VDD VDD.n102 0.0794677
R205 VDD VDD.n39 0.0794677
R206 VDD.n44 VDD 0.0794677
R207 VDD VDD.n49 0.0794677
R208 VDD.n11 VDD 0.0759839
R209 VDD VDD.n109 0.0709717
R210 VDD.n4 VDD 0.0709717
R211 VDD VDD.n2 0.0709717
R212 VDD.n52 VDD.n12 0.0562419
R213 VDD.n95 VDD 0.049022
R214 VDD.n48 VDD.n12 0.0411452
R215 VDD.n94 VDD.n86 0.0358571
R216 VDD.n95 VDD.n94 0.03425
R217 VDD.n112 VDD.n12 0.0201154
R218 VDD.n6 VDD 0.00579412
R219 VDD VDD.n10 0.00514516
R220 VDD.n91 VDD.n86 0.00371429
R221 VDD.n92 VDD.n91 0.00210714
R222 VDD.n36 VDD 0.00166129
R223 VDD.n33 VDD 0.00166129
R224 VDD VDD.n30 0.00166129
R225 VDD VDD.n27 0.00166129
R226 VDD.n74 VDD 0.00166129
R227 VDD.n71 VDD 0.00166129
R228 VDD.n68 VDD 0.00166129
R229 VDD VDD.n65 0.00166129
R230 VDD.n106 VDD 0.00166129
R231 VDD.n103 VDD 0.00166129
R232 VDD VDD.n100 0.00166129
R233 VDD VDD.n97 0.00166129
R234 VDD.n40 VDD 0.00166129
R235 VDD VDD.n43 0.00166129
R236 VDD.n50 VDD 0.00166129
R237 VDD VDD.n112 0.00107692
R238 CLK.n9 CLK.t0 36.935
R239 CLK.n3 CLK.t2 36.935
R240 CLK.n24 CLK.t7 36.935
R241 CLK.n17 CLK.t9 36.935
R242 CLK.n13 CLK.t12 30.6315
R243 CLK.n37 CLK.t6 25.5364
R244 CLK.n29 CLK.t1 25.5364
R245 CLK.n13 CLK.t5 21.7275
R246 CLK.n9 CLK.t3 18.1962
R247 CLK.n3 CLK.t13 18.1962
R248 CLK.n24 CLK.t10 18.1962
R249 CLK.n17 CLK.t8 18.1962
R250 CLK.n29 CLK.t4 14.0749
R251 CLK.n37 CLK.t11 14.0749
R252 CLK.n21 CLK.n14 7.41477
R253 CLK.n35 CLK.n34 5.37352
R254 CLK.n5 CLK.n2 4.5005
R255 CLK.n5 CLK.n4 4.5005
R256 CLK.n8 CLK.n7 4.5005
R257 CLK.n10 CLK.n7 4.5005
R258 CLK.n19 CLK.n16 4.5005
R259 CLK.n19 CLK.n18 4.5005
R260 CLK.n23 CLK.n22 4.5005
R261 CLK.n25 CLK.n22 4.5005
R262 CLK.n30 CLK.n28 4.5005
R263 CLK.n31 CLK.n28 4.5005
R264 CLK.n39 CLK.n38 4.5005
R265 CLK.n40 CLK.n39 4.5005
R266 CLK.n12 CLK.n11 2.25107
R267 CLK.n27 CLK.n26 2.25107
R268 CLK.n33 CLK.n32 2.24385
R269 CLK.n36 CLK.n0 2.24385
R270 CLK.n4 CLK.n3 2.12175
R271 CLK.n18 CLK.n17 2.12175
R272 CLK.n10 CLK.n9 2.12075
R273 CLK.n25 CLK.n24 2.12075
R274 CLK.n14 CLK.n13 1.80496
R275 CLK.n7 CLK.n6 1.74297
R276 CLK.n21 CLK.n20 1.62464
R277 CLK.n6 CLK.n1 1.49778
R278 CLK.n20 CLK.n15 1.49778
R279 CLK.n30 CLK.n29 1.42706
R280 CLK.n38 CLK.n37 1.42706
R281 CLK.n35 CLK.n12 0.882596
R282 CLK.n34 CLK.n27 0.882596
R283 CLK.n31 CLK 0.1605
R284 CLK.n22 CLK.n21 0.118826
R285 CLK.n14 CLK 0.106541
R286 CLK.n34 CLK.n33 0.0726935
R287 CLK.n36 CLK.n35 0.0726935
R288 CLK CLK.n40 0.05925
R289 CLK.n8 CLK 0.0473512
R290 CLK.n2 CLK 0.0473512
R291 CLK.n23 CLK 0.0473512
R292 CLK.n16 CLK 0.0473512
R293 CLK.n11 CLK.n8 0.0361897
R294 CLK.n2 CLK.n1 0.0361897
R295 CLK.n26 CLK.n23 0.0361897
R296 CLK.n16 CLK.n15 0.0361897
R297 CLK.n32 CLK.n31 0.03175
R298 CLK.n40 CLK.n0 0.03175
R299 CLK.n33 CLK.n28 0.0205196
R300 CLK.n39 CLK.n36 0.0205196
R301 CLK.n6 CLK.n5 0.0131772
R302 CLK.n20 CLK.n19 0.0131772
R303 CLK.n12 CLK.n7 0.0122182
R304 CLK.n27 CLK.n22 0.0122182
R305 CLK.n11 CLK.n10 0.00515517
R306 CLK.n4 CLK.n1 0.00515517
R307 CLK.n26 CLK.n25 0.00515517
R308 CLK.n18 CLK.n15 0.00515517
R309 CLK.n32 CLK.n30 0.00175
R310 CLK.n38 CLK.n0 0.00175
R311 VSS.n42 VSS.n9 20976.7
R312 VSS.n26 VSS.t15 12337.5
R313 VSS.n55 VSS.t44 6806.14
R314 VSS.n26 VSS.n25 5448.69
R315 VSS.n41 VSS.n10 3893.61
R316 VSS.n25 VSS.t0 3035.98
R317 VSS.t41 VSS.t19 2781.65
R318 VSS.n10 VSS.t46 2623.57
R319 VSS.n10 VSS.t66 2617.37
R320 VSS.t24 VSS.t54 2505.73
R321 VSS.t63 VSS.t28 2505.73
R322 VSS.t22 VSS.t61 2505.73
R323 VSS.t30 VSS.t56 2505.73
R324 VSS.t25 VSS.t12 2307.56
R325 VSS.t37 VSS.t49 2307.56
R326 VSS.t26 VSS.t14 2307.56
R327 VSS.t8 VSS.t64 2307.56
R328 VSS.t21 VSS.t52 2307.56
R329 VSS.t17 VSS.t58 2307.56
R330 VSS.t39 VSS.t34 2307.56
R331 VSS.t48 VSS.n26 2073.37
R332 VSS.t40 VSS.n42 1713.53
R333 VSS.n42 VSS.n41 1565.03
R334 VSS.t33 VSS.t36 992.366
R335 VSS.t4 VSS.t63 992.366
R336 VSS.t23 VSS.t16 992.366
R337 VSS.t10 VSS.t30 992.366
R338 VSS.t14 VSS.t5 913.885
R339 VSS.t11 VSS.t39 913.885
R340 VSS.n12 VSS.t67 776.83
R341 VSS.t15 VSS.n0 595.42
R342 VSS.n1 VSS.t24 595.42
R343 VSS.n2 VSS.t33 595.42
R344 VSS.n3 VSS.t4 595.42
R345 VSS.t66 VSS.n5 595.42
R346 VSS.n6 VSS.t22 595.42
R347 VSS.n7 VSS.t23 595.42
R348 VSS.n8 VSS.t10 595.42
R349 VSS.t19 VSS.n12 554.879
R350 VSS.n29 VSS.t48 548.331
R351 VSS.n30 VSS.t25 548.331
R352 VSS.n38 VSS.t5 548.331
R353 VSS.n45 VSS.t40 548.331
R354 VSS.n46 VSS.t21 548.331
R355 VSS.n51 VSS.t58 548.331
R356 VSS.n52 VSS.t11 548.331
R357 VSS.n16 VSS.t43 546.41
R358 VSS.t54 VSS.n0 396.947
R359 VSS.n1 VSS.t50 396.947
R360 VSS.t28 VSS.n2 396.947
R361 VSS.t46 VSS.n3 396.947
R362 VSS.t61 VSS.n5 396.947
R363 VSS.n6 VSS.t59 396.947
R364 VSS.t56 VSS.n7 396.947
R365 VSS.t44 VSS.n8 396.947
R366 VSS.t12 VSS.n29 365.555
R367 VSS.n30 VSS.t37 365.555
R368 VSS.n33 VSS.t26 365.555
R369 VSS.t64 VSS.n38 365.555
R370 VSS.t52 VSS.n45 365.555
R371 VSS.n46 VSS.t17 365.555
R372 VSS.t34 VSS.n51 365.555
R373 VSS.n52 VSS.t31 365.555
R374 VSS.n16 VSS.t6 364.274
R375 VSS.n41 VSS.n40 119.948
R376 VSS.t0 VSS.n24 47.5615
R377 VSS.n40 VSS.t8 34.2711
R378 VSS.n13 VSS.t41 34.1511
R379 VSS.n55 VSS.t2 22.8476
R380 VSS.n56 VSS.n55 16.6241
R381 VSS.n56 VSS.t3 9.3736
R382 VSS.n39 VSS.t9 9.3736
R383 VSS.n15 VSS.t42 9.36521
R384 VSS.n21 VSS.n11 9.3221
R385 VSS.n19 VSS.t20 9.3221
R386 VSS.n22 VSS.t1 9.30652
R387 VSS VSS.t7 7.30633
R388 VSS.n73 VSS.t55 7.19156
R389 VSS.n71 VSS.t51 7.19156
R390 VSS.n64 VSS.t62 7.19156
R391 VSS.n62 VSS.t60 7.19156
R392 VSS.n27 VSS.t13 7.19156
R393 VSS.n32 VSS.t38 7.19156
R394 VSS.n35 VSS.t27 7.19156
R395 VSS.n43 VSS.t53 7.19156
R396 VSS.n48 VSS.t18 7.19156
R397 VSS.n49 VSS.t35 7.19156
R398 VSS.n69 VSS.t29 5.91399
R399 VSS.n67 VSS.t47 5.91399
R400 VSS.n60 VSS.t57 5.91399
R401 VSS.n58 VSS.t45 5.91399
R402 VSS.n36 VSS.t65 5.91399
R403 VSS.n54 VSS.t32 5.91399
R404 VSS.n14 VSS.n13 5.2005
R405 VSS.n17 VSS.n16 5.2005
R406 VSS.n24 VSS.n23 5.2005
R407 VSS.n20 VSS.n12 5.2005
R408 VSS.n29 VSS.n28 5.2005
R409 VSS.n31 VSS.n30 5.2005
R410 VSS.n34 VSS.n33 5.2005
R411 VSS.n38 VSS.n37 5.2005
R412 VSS.n40 VSS.n39 5.2005
R413 VSS.n45 VSS.n44 5.2005
R414 VSS.n47 VSS.n46 5.2005
R415 VSS.n51 VSS.n50 5.2005
R416 VSS.n53 VSS.n52 5.2005
R417 VSS.n59 VSS.n8 5.2005
R418 VSS.n61 VSS.n7 5.2005
R419 VSS.n63 VSS.n6 5.2005
R420 VSS.n65 VSS.n5 5.2005
R421 VSS.n68 VSS.n3 5.2005
R422 VSS.n70 VSS.n2 5.2005
R423 VSS.n72 VSS.n1 5.2005
R424 VSS.n74 VSS.n0 5.2005
R425 VSS.n58 VSS.n57 1.03335
R426 VSS.n66 VSS.n4 0.845914
R427 VSS.n71 VSS.n70 0.480225
R428 VSS.n69 VSS.n68 0.480225
R429 VSS.n62 VSS.n61 0.480225
R430 VSS.n60 VSS.n59 0.480225
R431 VSS.n27 VSS 0.343161
R432 VSS VSS.n32 0.343161
R433 VSS.n43 VSS 0.343161
R434 VSS VSS.n48 0.343161
R435 VSS.n73 VSS 0.343161
R436 VSS.n64 VSS 0.343161
R437 VSS.n19 VSS.n18 0.309418
R438 VSS.n37 VSS 0.289491
R439 VSS.n53 VSS 0.289491
R440 VSS.n18 VSS.n17 0.255008
R441 VSS VSS.n35 0.191234
R442 VSS.n49 VSS 0.191234
R443 VSS.n67 VSS.n66 0.187931
R444 VSS.n66 VSS 0.183803
R445 VSS.n22 VSS.n21 0.168119
R446 VSS.n18 VSS.n15 0.141461
R447 VSS.n57 VSS 0.137685
R448 VSS VSS.n4 0.137685
R449 VSS.n21 VSS.n20 0.136634
R450 VSS.n28 VSS.n27 0.118573
R451 VSS.n32 VSS.n31 0.118573
R452 VSS.n35 VSS.n34 0.118573
R453 VSS.n44 VSS.n43 0.118573
R454 VSS.n48 VSS.n47 0.118573
R455 VSS.n50 VSS.n49 0.118573
R456 VSS.n74 VSS.n73 0.118573
R457 VSS.n72 VSS.n71 0.118573
R458 VSS.n65 VSS.n64 0.118573
R459 VSS.n63 VSS.n62 0.118573
R460 VSS VSS.n19 0.115458
R461 VSS VSS.n36 0.115271
R462 VSS.n54 VSS 0.115271
R463 VSS VSS.n69 0.115271
R464 VSS VSS.n67 0.115271
R465 VSS VSS.n60 0.115271
R466 VSS VSS.n58 0.115271
R467 VSS.n36 VSS.n4 0.10206
R468 VSS.n57 VSS.n54 0.10206
R469 VSS.n15 VSS.n14 0.0589274
R470 VSS.n23 VSS.n22 0.0564843
R471 VSS.n28 VSS 0.00545413
R472 VSS.n31 VSS 0.00545413
R473 VSS.n34 VSS 0.00545413
R474 VSS.n44 VSS 0.00545413
R475 VSS.n47 VSS 0.00545413
R476 VSS.n50 VSS 0.00545413
R477 VSS VSS.n74 0.00545413
R478 VSS VSS.n72 0.00545413
R479 VSS VSS.n65 0.00545413
R480 VSS VSS.n63 0.00545413
R481 VSS.n37 VSS 0.00380275
R482 VSS.n17 VSS 0.00380275
R483 VSS VSS.n53 0.00380275
R484 VSS.n70 VSS 0.00380275
R485 VSS.n68 VSS 0.00380275
R486 VSS.n61 VSS 0.00380275
R487 VSS.n59 VSS 0.00380275
R488 VSS.n20 VSS 0.00352521
R489 VSS VSS.n56 0.00219811
R490 VSS.n39 VSS 0.00219811
R491 VSS.n14 VSS 0.00219811
R492 VSS.n23 VSS 0.00191732
R493 JK_FF_mag_1.J.n4 JK_FF_mag_1.J.t4 37.1986
R494 JK_FF_mag_1.J.n3 JK_FF_mag_1.J.t3 31.528
R495 JK_FF_mag_1.J.n2 JK_FF_mag_1.J.t7 30.5184
R496 JK_FF_mag_1.J.n2 JK_FF_mag_1.J.t5 24.7029
R497 JK_FF_mag_1.J.n4 JK_FF_mag_1.J.t6 17.6614
R498 JK_FF_mag_1.J.n3 JK_FF_mag_1.J.t8 15.3826
R499 JK_FF_mag_1.J.n0 JK_FF_mag_1.J 12.0843
R500 JK_FF_mag_1.J.n0 JK_FF_mag_1.J.n3 9.86691
R501 JK_FF_mag_1.J.n5 JK_FF_mag_1.J 6.09789
R502 JK_FF_mag_1.J.n1 JK_FF_mag_1.J.n7 2.99416
R503 JK_FF_mag_1.J.n7 JK_FF_mag_1.J.t2 2.2755
R504 JK_FF_mag_1.J.n7 JK_FF_mag_1.J.n6 2.2755
R505 JK_FF_mag_1.J.n1 JK_FF_mag_1.J.n5 2.2505
R506 JK_FF_mag_1.J.n0 JK_FF_mag_1.J 2.24173
R507 JK_FF_mag_1.J.n5 JK_FF_mag_1.J.n0 1.93723
R508 JK_FF_mag_1.J JK_FF_mag_1.J.n2 1.81225
R509 JK_FF_mag_1.J JK_FF_mag_1.J.n4 1.43709
R510 JK_FF_mag_1.J JK_FF_mag_1.J.n1 0.281955
R511 Q0.n2 Q0.t5 36.935
R512 Q0.n4 Q0.t7 31.528
R513 Q0.n0 Q0.t4 29.8635
R514 Q0.n0 Q0.t8 27.7543
R515 Q0.n2 Q0.t3 18.1962
R516 Q0.n4 Q0.t6 15.3826
R517 Q0.n11 Q0.n8 7.09905
R518 Q0.n5 Q0.n4 6.86134
R519 Q0.n6 Q0.n3 5.01116
R520 Q0.n7 Q0.n1 3.41795
R521 Q0.n11 Q0.n10 3.25085
R522 Q0.n10 Q0.t2 2.2755
R523 Q0.n10 Q0.n9 2.2755
R524 Q0.n12 Q0.n7 2.2505
R525 Q0.n3 Q0.n2 2.13398
R526 Q0.n1 Q0.n0 1.73738
R527 Q0.n7 Q0.n6 1.50498
R528 Q0.n6 Q0.n5 1.12056
R529 Q0.n12 Q0.n11 0.0919062
R530 Q0.n5 Q0 0.0857632
R531 Q0.n3 Q0 0.0810725
R532 Q0 Q0.n12 0.073625
R533 Q0.n1 Q0 0.0694712
R534 Vdiv3.n2 Vdiv3.n1 9.33985
R535 Vdiv3.n2 Vdiv3.n0 5.17836
R536 Vdiv3 Vdiv3.n2 0.0749828
R537 Q1.n11 Q1.t6 36.935
R538 Q1.n4 Q1.t7 31.528
R539 Q1.n9 Q1.t5 31.528
R540 Q1.n0 Q1.t3 30.5184
R541 Q1.n0 Q1.t8 24.7029
R542 Q1.n11 Q1.t4 18.1962
R543 Q1.n4 Q1.t10 15.3826
R544 Q1.n9 Q1.t9 15.3826
R545 Q1.n8 Q1.n7 7.43416
R546 Q1.n18 Q1.n15 7.09905
R547 Q1.n10 Q1.n9 6.86134
R548 Q1.n5 Q1.n4 5.68456
R549 Q1.n13 Q1.n12 5.01109
R550 Q1.n3 Q1.n2 4.5005
R551 Q1.n5 Q1.n2 4.5005
R552 Q1.n18 Q1.n17 3.25085
R553 Q1.n19 Q1.n14 2.34532
R554 Q1.n17 Q1.t1 2.2755
R555 Q1.n17 Q1.n16 2.2755
R556 Q1.n7 Q1.n6 2.2414
R557 Q1.n12 Q1.n11 2.13398
R558 Q1.n1 Q1.n0 1.81206
R559 Q1.n14 Q1.n13 1.49653
R560 Q1.n14 Q1.n8 1.23718
R561 Q1.n13 Q1.n10 1.12725
R562 Q1.n8 Q1.n1 0.977039
R563 Q1.n1 Q1 0.105733
R564 Q1.n19 Q1.n18 0.0919062
R565 Q1.n10 Q1 0.0857632
R566 Q1.n12 Q1 0.0810725
R567 Q1 Q1.n19 0.073625
R568 Q1.n3 Q1 0.0444655
R569 Q1.n6 Q1.n3 0.028431
R570 Q1.n7 Q1.n2 0.0234177
R571 Q1.n6 Q1.n5 0.0129138
R572 RST.n7 RST.t3 37.1991
R573 RST.n0 RST.t1 36.935
R574 RST.n0 RST.t0 18.1962
R575 RST.n7 RST.t2 17.66
R576 RST.n11 RST.n10 9.41757
R577 RST.n11 RST.n4 4.5005
R578 RST.n13 RST.n12 2.24959
R579 RST.n10 RST.n9 2.24157
R580 RST.n2 RST.n0 2.11961
R581 RST.n8 RST.n7 1.41552
R582 RST RST.n13 0.0592509
R583 RST.n6 RST 0.0410354
R584 RST.n9 RST.n6 0.0361897
R585 RST RST.n11 0.0293
R586 RST.n10 RST.n5 0.0230258
R587 RST.n13 RST.n4 0.0188336
R588 RST.n2 RST.n1 0.00556597
R589 RST.n3 RST.n2 0.00546378
R590 RST.n9 RST.n8 0.00515517
R591 RST.n4 RST.n3 0.00332638
R592 RST.n12 RST 0.0017
C0 JK_FF_mag_0.nand2_mag_1.IN2 CLK 7.81e-19
C1 or_2_mag_0.GF_INV_MAG_1.IN JK_FF_mag_1.J 0.00205f
C2 a_5657_256# JK_FF_mag_1.J 0.0811f
C3 JK_FF_mag_1.nand3_mag_1.OUT JK_FF_mag_1.nand2_mag_4.IN2 0.122f
C4 JK_FF_mag_1.nand3_mag_1.OUT JK_FF_mag_1.nand3_mag_1.IN1 0.765f
C5 a_5060_2688# JK_FF_mag_1.J 0.00168f
C6 CLK a_1358_1353# 6.43e-21
C7 JK_FF_mag_1.nand3_mag_1.IN1 JK_FF_mag_1.nand3_mag_2.OUT 0.00166f
C8 a_2076_256# JK_FF_mag_1.nand2_mag_3.IN1 0.0036f
C9 JK_FF_mag_0.nand3_mag_2.OUT a_3645_212# 0.0202f
C10 JK_FF_mag_1.nand2_mag_1.IN2 JK_FF_mag_1.nand2_mag_4.IN2 8.59e-20
C11 JK_FF_mag_1.nand3_mag_1.IN1 JK_FF_mag_1.nand2_mag_1.IN2 0.109f
C12 Q0 JK_FF_mag_0.nand2_mag_3.IN1 0.0175f
C13 JK_FF_mag_0.nand2_mag_1.IN2 or_2_mag_0.IN2 3.81e-19
C14 RST JK_FF_mag_0.nand3_mag_1.OUT 0.276f
C15 Vdiv3 Q1 2.53e-19
C16 a_2486_1353# JK_FF_mag_1.nand2_mag_3.IN1 0.00118f
C17 JK_FF_mag_1.QB JK_FF_mag_1.nand2_mag_3.IN1 0.21f
C18 a_1512_212# JK_FF_mag_1.QB 0.00696f
C19 a_4529_212# JK_FF_mag_0.nand3_mag_1.IN1 8.64e-19
C20 JK_FF_mag_0.nand3_mag_1.IN1 CLK 0.00254f
C21 JK_FF_mag_0.nand2_mag_4.IN2 Q0 0.0635f
C22 a_2076_256# RST 5.68e-19
C23 a_5093_256# JK_FF_mag_1.J 0.00964f
C24 a_1922_1353# JK_FF_mag_1.nand2_mag_3.IN1 0.011f
C25 Q0 VDD 1.26f
C26 JK_FF_mag_1.nand3_mag_1.OUT JK_FF_mag_1.nand3_mag_0.OUT 0.0622f
C27 a_4375_1353# RST 1.9e-19
C28 JK_FF_mag_1.nand3_mag_1.OUT a_788_212# 1.5e-20
C29 or_2_mag_0.GF_INV_MAG_1.IN Q0 0.209f
C30 JK_FF_mag_1.nand3_mag_1.OUT JK_FF_mag_1.J 9.62e-20
C31 Q1 JK_FF_mag_0.nand3_mag_1.OUT 4.33e-19
C32 Q0 a_5657_256# 0.0157f
C33 JK_FF_mag_1.nand3_mag_0.OUT JK_FF_mag_1.nand3_mag_2.OUT 0.00183f
C34 JK_FF_mag_1.nand3_mag_2.OUT a_788_212# 0.0731f
C35 a_2486_1353# RST 7.24e-19
C36 JK_FF_mag_1.QB RST 0.584f